Original_Dataset_Offline_Edition_1/Network_05O-10/scenario_10/case.raw
0,100.0,33,0,0,60.0
'GO Competition -- Network Model 05'
'Date: 2019-02-11'
1001,'            ',115.0,1,1,1,1,1.0,0.0,1.1,0.9,1.1,0.9
1002,'            ',115.0,1,1,1,1,1.0,0.0,1.1,0.9,1.1,0.9
1003,'            ',115.0,1,1,1,1,1.0,0.0,1.1,0.9,1.1,0.9
1004,'            ',230.0,2,1,1,1,1.0,0.0,1.1,0.9,1.1,0.9
1005,'            ',115.0,1,1,1,1,1.0,0.0,1.1,0.9,1.1,0.9
1006,'            ',13.8,2,1,1,1,1.0,0.0,1.1,0.9,1.1,0.9
1007,'            ',115.0,1,1,1,1,1.0,0.0,1.1,0.9,1.1,0.9
1008,'            ',115.0,1,1,1,1,1.0,0.0,1.1,0.9,1.1,0.9
1009,'            ',13.8,2,1,1,1,1.0,0.0,1.1,0.9,1.1,0.9
1010,'            ',115.0,1,1,1,1,1.0,0.0,1.1,0.9,1.1,0.9
1011,'            ',22.0,2,1,1,1,1.0,0.0,1.1,0.9,1.1,0.9
1012,'            ',115.0,1,1,1,1,1.0,0.0,1.1,0.9,1.1,0.9
1013,'            ',115.0,1,1,1,1,1.0,0.0,1.1,0.9,1.1,0.9
1014,'            ',115.0,1,1,1,1,1.0,0.0,1.1,0.9,1.1,0.9
1015,'            ',115.0,1,1,1,1,1.0,0.0,1.1,0.9,1.1,0.9
1016,'            ',115.0,1,1,1,1,1.0,0.0,1.1,0.9,1.1,0.9
1017,'            ',115.0,1,1,1,1,1.0,0.0,1.1,0.9,1.1,0.9
1018,'            ',115.0,1,1,1,1,1.0,0.0,1.1,0.9,1.1,0.9
1019,'            ',115.0,1,1,1,1,1.0,0.0,1.1,0.9,1.1,0.9
1020,'            ',115.0,1,1,1,1,1.0,0.0,1.1,0.9,1.1,0.9
1021,'            ',13.8,2,1,1,1,1.0,0.0,1.1,0.9,1.1,0.9
1022,'            ',115.0,1,1,1,1,1.0,0.0,1.1,0.9,1.1,0.9
1023,'            ',13.8,2,1,1,1,1.0,0.0,1.1,0.9,1.1,0.9
1024,'            ',115.0,1,1,1,1,1.0,0.0,1.1,0.9,1.1,0.9
1025,'            ',115.0,1,1,1,1,1.0,0.0,1.1,0.9,1.1,0.9
1026,'            ',13.8,2,1,1,1,1.0,0.0,1.1,0.9,1.1,0.9
1027,'            ',115.0,1,1,1,1,1.0,0.0,1.1,0.9,1.1,0.9
1028,'            ',115.0,1,1,1,1,1.0,0.0,1.1,0.9,1.1,0.9
1029,'            ',115.0,1,1,1,1,1.0,0.0,1.1,0.9,1.1,0.9
1030,'            ',115.0,1,1,1,1,1.0,0.0,1.1,0.9,1.1,0.9
1031,'            ',115.0,1,1,1,1,1.0,0.0,1.1,0.9,1.1,0.9
1032,'            ',115.0,1,1,1,1,1.0,0.0,1.1,0.9,1.1,0.9
1033,'            ',230.0,2,1,1,1,1.0,0.0,1.1,0.9,1.1,0.9
1034,'            ',115.0,1,1,1,1,1.0,0.0,1.1,0.9,1.1,0.9
1035,'            ',13.8,2,1,1,1,1.0,0.0,1.1,0.9,1.1,0.9
1036,'            ',115.0,1,1,1,1,1.0,0.0,1.1,0.9,1.1,0.9
1037,'            ',115.0,1,1,1,1,1.0,0.0,1.1,0.9,1.1,0.9
1038,'            ',115.0,1,1,1,1,1.0,0.0,1.1,0.9,1.1,0.9
1039,'            ',22.0,2,1,1,1,1.0,0.0,1.1,0.9,1.1,0.9
1040,'            ',115.0,1,1,1,1,1.0,0.0,1.1,0.9,1.1,0.9
1041,'            ',115.0,1,1,1,1,1.0,0.0,1.1,0.9,1.1,0.9
1042,'            ',13.8,2,1,1,1,1.0,0.0,1.1,0.9,1.1,0.9
1043,'            ',13.8,2,1,1,1,1.0,0.0,1.1,0.9,1.1,0.9
1044,'            ',115.0,1,1,1,1,1.0,0.0,1.1,0.9,1.1,0.9
1045,'            ',115.0,1,1,1,1,1.0,0.0,1.1,0.9,1.1,0.9
1046,'            ',115.0,1,1,1,1,1.0,0.0,1.1,0.9,1.1,0.9
1047,'            ',115.0,1,1,1,1,1.0,0.0,1.1,0.9,1.1,0.9
1048,'            ',18.0,2,1,1,1,1.0,0.0,1.1,0.9,1.1,0.9
1049,'            ',18.0,2,1,1,1,1.0,0.0,1.1,0.9,1.1,0.9
1050,'            ',18.0,2,1,1,1,1.0,0.0,1.1,0.9,1.1,0.9
1051,'            ',18.0,2,1,1,1,1.0,0.0,1.1,0.9,1.1,0.9
1052,'            ',18.0,2,1,1,1,1.0,0.0,1.1,0.9,1.1,0.9
1053,'            ',230.0,2,1,1,1,1.0,0.0,1.1,0.9,1.1,0.9
1054,'            ',115.0,1,1,1,1,1.0,0.0,1.1,0.9,1.1,0.9
1055,'            ',115.0,1,1,1,1,1.0,0.0,1.1,0.9,1.1,0.9
1056,'            ',115.0,1,1,1,1,1.0,0.0,1.1,0.9,1.1,0.9
1057,'            ',18.0,2,1,1,1,1.0,0.0,1.1,0.9,1.1,0.9
1058,'            ',115.0,1,1,1,1,1.0,0.0,1.1,0.9,1.1,0.9
1059,'            ',22.0,2,1,1,1,1.0,0.0,1.1,0.9,1.1,0.9
1060,'            ',22.0,2,1,1,1,1.0,0.0,1.1,0.9,1.1,0.9
1061,'            ',115.0,1,1,1,1,1.0,0.0,1.1,0.9,1.1,0.9
1062,'            ',13.8,2,1,1,1,1.0,0.0,1.1,0.9,1.1,0.9
1063,'            ',13.8,2,1,1,1,1.0,0.0,1.1,0.9,1.1,0.9
1064,'            ',115.0,1,1,1,1,1.0,0.0,1.1,0.9,1.1,0.9
1065,'            ',115.0,1,1,1,1,1.0,0.0,1.1,0.9,1.1,0.9
1066,'            ',13.8,2,1,1,1,1.0,0.0,1.1,0.9,1.1,0.9
1067,'            ',115.0,1,1,1,1,1.0,0.0,1.1,0.9,1.1,0.9
1068,'            ',115.0,1,1,1,1,1.0,0.0,1.1,0.9,1.1,0.9
1069,'            ',115.0,1,1,1,1,1.0,0.0,1.1,0.9,1.1,0.9
1070,'            ',13.8,2,1,1,1,1.0,0.0,1.1,0.9,1.1,0.9
1071,'            ',115.0,1,1,1,1,1.0,0.0,1.1,0.9,1.1,0.9
1072,'            ',18.0,2,1,1,1,1.0,0.0,1.1,0.9,1.1,0.9
1073,'            ',18.0,2,1,1,1,1.0,0.0,1.1,0.9,1.1,0.9
1074,'            ',18.0,2,1,1,1,1.0,0.0,1.1,0.9,1.1,0.9
1075,'            ',18.0,2,1,1,1,1.0,0.0,1.1,0.9,1.1,0.9
1076,'            ',18.0,2,1,1,1,1.0,0.0,1.1,0.9,1.1,0.9
1077,'            ',18.0,2,1,1,1,1.0,0.0,1.1,0.9,1.1,0.9
1078,'            ',18.0,2,1,1,1,1.0,0.0,1.1,0.9,1.1,0.9
1079,'            ',500.0,2,1,1,1,1.0,0.0,1.1,0.9,1.1,0.9
1080,'            ',18.0,2,1,1,1,1.0,0.0,1.1,0.9,1.1,0.9
1081,'            ',230.0,2,1,1,1,1.0,0.0,1.1,0.9,1.1,0.9
1082,'            ',115.0,2,1,1,1,1.0,0.0,1.1,0.9,1.1,0.9
1083,'            ',115.0,1,1,1,1,1.0,0.0,1.1,0.9,1.1,0.9
1084,'            ',115.0,2,1,1,1,1.0,0.0,1.1,0.9,1.1,0.9
1085,'            ',115.0,1,1,1,1,1.0,0.0,1.1,0.9,1.1,0.9
1086,'            ',115.0,1,1,1,1,1.0,0.0,1.1,0.9,1.1,0.9
1087,'            ',115.0,1,1,1,1,1.0,0.0,1.1,0.9,1.1,0.9
1088,'            ',115.0,2,1,1,1,1.0,0.0,1.1,0.9,1.1,0.9
1089,'            ',115.0,1,1,1,1,1.0,0.0,1.1,0.9,1.1,0.9
1090,'            ',115.0,2,1,1,1,1.0,0.0,1.1,0.9,1.1,0.9
1091,'            ',161.0,1,1,1,1,1.0,0.0,1.1,0.9,1.1,0.9
2001,'            ',161.0,1,1,1,1,1.0,0.0,1.1,0.9,1.1,0.9
2002,'            ',500.0,1,1,1,1,1.0,0.0,1.1,0.9,1.1,0.9
2003,'            ',161.0,1,1,1,1,1.0,0.0,1.1,0.9,1.1,0.9
2004,'            ',13.8,2,1,1,1,1.0,0.0,1.1,0.9,1.1,0.9
2005,'            ',13.8,2,1,1,1,1.0,0.0,1.1,0.9,1.1,0.9
2006,'            ',13.8,2,1,1,1,1.0,0.0,1.1,0.9,1.1,0.9
2007,'            ',161.0,1,1,1,1,1.0,0.0,1.1,0.9,1.1,0.9
2008,'            ',161.0,1,1,1,1,1.0,0.0,1.1,0.9,1.1,0.9
2009,'            ',161.0,1,1,1,1,1.0,0.0,1.1,0.9,1.1,0.9
2010,'            ',161.0,1,1,1,1,1.0,0.0,1.1,0.9,1.1,0.9
2011,'            ',500.0,1,1,1,1,1.0,0.0,1.1,0.9,1.1,0.9
2012,'            ',161.0,1,1,1,1,1.0,0.0,1.1,0.9,1.1,0.9
2013,'            ',18.0,2,1,1,1,1.0,0.0,1.1,0.9,1.1,0.9
2014,'            ',161.0,1,1,1,1,1.0,0.0,1.1,0.9,1.1,0.9
2015,'            ',161.0,1,1,1,1,1.0,0.0,1.1,0.9,1.1,0.9
2016,'            ',161.0,1,1,1,1,1.0,0.0,1.1,0.9,1.1,0.9
2017,'            ',500.0,1,1,1,1,1.0,0.0,1.1,0.9,1.1,0.9
2018,'            ',161.0,1,1,1,1,1.0,0.0,1.1,0.9,1.1,0.9
2019,'            ',20.0,2,1,1,1,1.0,0.0,1.1,0.9,1.1,0.9
2020,'            ',161.0,1,1,1,1,1.0,0.0,1.1,0.9,1.1,0.9
2021,'            ',500.0,1,1,1,1,1.0,0.0,1.1,0.9,1.1,0.9
2022,'            ',161.0,1,1,1,1,1.0,0.0,1.1,0.9,1.1,0.9
2023,'            ',13.8,2,1,1,1,1.0,0.0,1.1,0.9,1.1,0.9
2024,'            ',13.8,2,1,1,1,1.0,0.0,1.1,0.9,1.1,0.9
2025,'            ',161.0,1,1,1,1,1.0,0.0,1.1,0.9,1.1,0.9
2026,'            ',161.0,1,1,1,1,1.0,0.0,1.1,0.9,1.1,0.9
2027,'            ',161.0,1,1,1,1,1.0,0.0,1.1,0.9,1.1,0.9
2028,'            ',161.0,1,1,1,1,1.0,0.0,1.1,0.9,1.1,0.9
2029,'            ',161.0,1,1,1,1,1.0,0.0,1.1,0.9,1.1,0.9
2030,'            ',161.0,1,1,1,1,1.0,0.0,1.1,0.9,1.1,0.9
2031,'            ',161.0,1,1,1,1,1.0,0.0,1.1,0.9,1.1,0.9
2032,'            ',161.0,1,1,1,1,1.0,0.0,1.1,0.9,1.1,0.9
2033,'            ',161.0,1,1,1,1,1.0,0.0,1.1,0.9,1.1,0.9
2034,'            ',161.0,1,1,1,1,1.0,0.0,1.1,0.9,1.1,0.9
2035,'            ',161.0,1,1,1,1,1.0,0.0,1.1,0.9,1.1,0.9
2036,'            ',161.0,1,1,1,1,1.0,0.0,1.1,0.9,1.1,0.9
2037,'            ',161.0,1,1,1,1,1.0,0.0,1.1,0.9,1.1,0.9
2038,'            ',161.0,1,1,1,1,1.0,0.0,1.1,0.9,1.1,0.9
2039,'            ',161.0,1,1,1,1,1.0,0.0,1.1,0.9,1.1,0.9
2040,'            ',161.0,1,1,1,1,1.0,0.0,1.1,0.9,1.1,0.9
2041,'            ',161.0,1,1,1,1,1.0,0.0,1.1,0.9,1.1,0.9
2042,'            ',18.0,2,1,1,1,1.0,0.0,1.1,0.9,1.1,0.9
2043,'            ',161.0,1,1,1,1,1.0,0.0,1.1,0.9,1.1,0.9
2044,'            ',161.0,1,1,1,1,1.0,0.0,1.1,0.9,1.1,0.9
2045,'            ',161.0,1,1,1,1,1.0,0.0,1.1,0.9,1.1,0.9
2046,'            ',161.0,1,1,1,1,1.0,0.0,1.1,0.9,1.1,0.9
2047,'            ',161.0,1,1,1,1,1.0,0.0,1.1,0.9,1.1,0.9
2048,'            ',161.0,1,1,1,1,1.0,0.0,1.1,0.9,1.1,0.9
2049,'            ',161.0,1,1,1,1,1.0,0.0,1.1,0.9,1.1,0.9
2050,'            ',161.0,1,1,1,1,1.0,0.0,1.1,0.9,1.1,0.9
2051,'            ',161.0,1,1,1,1,1.0,0.0,1.1,0.9,1.1,0.9
2052,'            ',161.0,1,1,1,1,1.0,0.0,1.1,0.9,1.1,0.9
2053,'            ',161.0,1,1,1,1,1.0,0.0,1.1,0.9,1.1,0.9
2054,'            ',500.0,1,1,1,1,1.0,0.0,1.1,0.9,1.1,0.9
2055,'            ',161.0,1,1,1,1,1.0,0.0,1.1,0.9,1.1,0.9
2056,'            ',18.0,2,1,1,1,1.0,0.0,1.1,0.9,1.1,0.9
2057,'            ',18.0,2,1,1,1,1.0,0.0,1.1,0.9,1.1,0.9
2058,'            ',161.0,1,1,1,1,1.0,0.0,1.1,0.9,1.1,0.9
2059,'            ',13.8,2,1,1,1,1.0,0.0,1.1,0.9,1.1,0.9
2060,'            ',161.0,1,1,1,1,1.0,0.0,1.1,0.9,1.1,0.9
2061,'            ',161.0,1,1,1,1,1.0,0.0,1.1,0.9,1.1,0.9
2062,'            ',18.0,2,1,1,1,1.0,0.0,1.1,0.9,1.1,0.9
2063,'            ',161.0,1,1,1,1,1.0,0.0,1.1,0.9,1.1,0.9
2064,'            ',161.0,1,1,1,1,1.0,0.0,1.1,0.9,1.1,0.9
2065,'            ',161.0,1,1,1,1,1.0,0.0,1.1,0.9,1.1,0.9
2066,'            ',161.0,1,1,1,1,1.0,0.0,1.1,0.9,1.1,0.9
2067,'            ',161.0,1,1,1,1,1.0,0.0,1.1,0.9,1.1,0.9
2068,'            ',161.0,1,1,1,1,1.0,0.0,1.1,0.9,1.1,0.9
2069,'            ',161.0,1,1,1,1,1.0,0.0,1.1,0.9,1.1,0.9
2070,'            ',161.0,1,1,1,1,1.0,0.0,1.1,0.9,1.1,0.9
2071,'            ',18.0,2,1,1,1,1.0,0.0,1.1,0.9,1.1,0.9
2072,'            ',161.0,1,1,1,1,1.0,0.0,1.1,0.9,1.1,0.9
2073,'            ',161.0,1,1,1,1,1.0,0.0,1.1,0.9,1.1,0.9
2074,'            ',115.0,1,1,1,1,1.0,0.0,1.1,0.9,1.1,0.9
2075,'            ',115.0,1,1,1,1,1.0,0.0,1.1,0.9,1.1,0.9
2076,'            ',24.0,2,1,1,1,1.0,0.0,1.1,0.9,1.1,0.9
2077,'            ',161.0,1,1,1,1,1.0,0.0,1.1,0.9,1.1,0.9
2078,'            ',13.8,2,1,1,1,1.0,0.0,1.1,0.9,1.1,0.9
2079,'            ',161.0,1,1,1,1,1.0,0.0,1.1,0.9,1.1,0.9
2080,'            ',161.0,1,1,1,1,1.0,0.0,1.1,0.9,1.1,0.9
2081,'            ',161.0,1,1,1,1,1.0,0.0,1.1,0.9,1.1,0.9
2082,'            ',161.0,1,1,1,1,1.0,0.0,1.1,0.9,1.1,0.9
2083,'            ',20.0,2,1,1,1,1.0,0.0,1.1,0.9,1.1,0.9
2084,'            ',20.0,2,1,1,1,1.0,0.0,1.1,0.9,1.1,0.9
2085,'            ',20.0,2,1,1,1,1.0,0.0,1.1,0.9,1.1,0.9
2086,'            ',161.0,1,1,1,1,1.0,0.0,1.1,0.9,1.1,0.9
2087,'            ',161.0,1,1,1,1,1.0,0.0,1.1,0.9,1.1,0.9
2088,'            ',161.0,1,1,1,1,1.0,0.0,1.1,0.9,1.1,0.9
2089,'            ',24.0,2,1,1,1,1.0,0.0,1.1,0.9,1.1,0.9
2090,'            ',161.0,1,1,1,1,1.0,0.0,1.1,0.9,1.1,0.9
2091,'            ',161.0,1,1,1,1,1.0,0.0,1.1,0.9,1.1,0.9
2092,'            ',161.0,1,1,1,1,1.0,0.0,1.1,0.9,1.1,0.9
2093,'            ',161.0,1,1,1,1,1.0,0.0,1.1,0.9,1.1,0.9
2094,'            ',13.8,2,1,1,1,1.0,0.0,1.1,0.9,1.1,0.9
2095,'            ',13.8,2,1,1,1,1.0,0.0,1.1,0.9,1.1,0.9
2096,'            ',500.0,1,1,1,1,1.0,0.0,1.1,0.9,1.1,0.9
2097,'            ',230.0,1,1,1,1,1.0,0.0,1.1,0.9,1.1,0.9
2098,'            ',161.0,1,1,1,1,1.0,0.0,1.1,0.9,1.1,0.9
2099,'            ',18.0,2,1,1,1,1.0,0.0,1.1,0.9,1.1,0.9
2100,'            ',18.0,2,1,1,1,1.0,0.0,1.1,0.9,1.1,0.9
2101,'            ',500.0,1,1,1,1,1.0,0.0,1.1,0.9,1.1,0.9
2102,'            ',161.0,1,1,1,1,1.0,0.0,1.1,0.9,1.1,0.9
2103,'            ',20.0,2,1,1,1,1.0,0.0,1.1,0.9,1.1,0.9
2104,'            ',20.0,2,1,1,1,1.0,0.0,1.1,0.9,1.1,0.9
2105,'            ',20.0,2,1,1,1,1.0,0.0,1.1,0.9,1.1,0.9
2106,'            ',161.0,1,1,1,1,1.0,0.0,1.1,0.9,1.1,0.9
2107,'            ',161.0,1,1,1,1,1.0,0.0,1.1,0.9,1.1,0.9
2108,'            ',161.0,1,1,1,1,1.0,0.0,1.1,0.9,1.1,0.9
2109,'            ',161.0,1,1,1,1,1.0,0.0,1.1,0.9,1.1,0.9
...
0 / end bus section
7183,'1',1,1,1,156.297,44.284,0.0,0.0,0.0,0.0,1,1,0
5436,'1',1,1,1,47.619,13.492,0.0,0.0,0.0,0.0,1,1,0
4159,'1',1,1,1,25.222,7.146,0.0,0.0,0.0,0.0,1,1,0
5249,'1',1,1,1,74.923,21.228,0.0,0.0,0.0,0.0,1,1,0
6360,'1',1,1,1,24.469,6.933,0.0,0.0,0.0,0.0,1,1,0
5028,'1',1,1,1,6.105,1.73,0.0,0.0,0.0,0.0,1,1,0
6178,'1',1,1,1,84.505,23.943,0.0,0.0,0.0,0.0,1,1,0
1091,'1',1,1,1,8.962,2.54,0.0,0.0,0.0,0.0,1,1,0
6174,'1',1,1,1,60.181,17.051,0.0,0.0,0.0,0.0,1,1,0
6150,'1',1,1,1,73.705,20.883,0.0,0.0,0.0,0.0,1,1,0
3002,'1',1,1,1,73.64,20.865,0.0,0.0,0.0,0.0,1,1,0
5233,'1',1,1,1,64.531,18.284,0.0,0.0,0.0,0.0,1,1,0
4038,'1',1,1,1,58.07,16.453,0.0,0.0,0.0,0.0,1,1,0
6283,'1',1,1,1,4.325,1.226,0.0,0.0,0.0,0.0,1,1,0
3024,'1',1,1,1,6.61,1.873,0.0,0.0,0.0,0.0,1,1,0
8110,'1',1,1,1,14.372,4.072,0.0,0.0,0.0,0.0,1,1,0
5285,'1',1,1,1,6.632,1.879,0.0,0.0,0.0,0.0,1,1,0
7260,'1',1,1,1,90.225,25.564,0.0,0.0,0.0,0.0,1,1,0
5217,'1',1,1,1,65.548,18.572,0.0,0.0,0.0,0.0,1,1,0
5048,'1',1,1,1,120.562,34.159,0.0,0.0,0.0,0.0,1,1,0
2121,'1',1,1,1,1.589,0.45,0.0,0.0,0.0,0.0,1,1,0
5293,'1',1,1,1,41.137,11.656,0.0,0.0,0.0,0.0,1,1,0
1028,'1',1,1,1,7.723,2.188,0.0,0.0,0.0,0.0,1,1,0
5056,'1',1,1,1,26.393,7.478,0.0,0.0,0.0,0.0,1,1,0
7293,'1',1,1,1,11.543,3.27,0.0,0.0,0.0,0.0,1,1,0
7120,'1',1,1,1,108.369,30.705,0.0,0.0,0.0,0.0,1,1,0
2010,'1',1,1,1,38.673,10.958,0.0,0.0,0.0,0.0,1,1,0
7290,'1',1,1,1,46.16,13.079,0.0,0.0,0.0,0.0,1,1,0
7380,'1',1,1,1,37.814,10.714,0.0,0.0,0.0,0.0,1,1,0
7343,'1',1,1,1,133.779,37.904,0.0,0.0,0.0,0.0,1,1,0
7297,'1',1,1,1,67.877,19.232,0.0,0.0,0.0,0.0,1,1,0
8093,'1',1,1,1,3.456,0.979,0.0,0.0,0.0,0.0,1,1,0
7070,'1',1,1,1,73.14,20.723,0.0,0.0,0.0,0.0,1,1,0
4055,'1',1,1,1,12.395,3.512,0.0,0.0,0.0,0.0,1,1,0
7265,'1',1,1,1,45.541,12.903,0.0,0.0,0.0,0.0,1,1,0
4110,'1',1,1,1,39.974,11.326,0.0,0.0,0.0,0.0,1,1,0
7106,'1',1,1,1,66.65,18.884,0.0,0.0,0.0,0.0,1,1,0
4042,'1',1,1,1,149.996,42.499,0.0,0.0,0.0,0.0,1,1,0
6337,'1',1,1,1,76.169,21.581,0.0,0.0,0.0,0.0,1,1,0
4108,'1',1,1,1,19.756,5.598,0.0,0.0,0.0,0.0,1,1,0
6029,'1',1,1,1,4.387,1.243,0.0,0.0,0.0,0.0,1,1,0
5092,'1',1,1,1,11.515,3.262,0.0,0.0,0.0,0.0,1,1,0
5031,'1',1,1,1,27.674,7.841,0.0,0.0,0.0,0.0,1,1,0
3052,'1',1,1,1,5.27,1.493,0.0,0.0,0.0,0.0,1,1,0
7319,'1',1,1,1,21.856,6.193,0.0,0.0,0.0,0.0,1,1,0
5128,'1',1,1,1,59.134,16.754,0.0,0.0,0.0,0.0,1,1,0
6225,'1',1,1,1,53.578,15.18,0.0,0.0,0.0,0.0,1,1,0
6013,'1',1,1,1,59.64,16.899,0.0,0.0,0.0,0.0,1,1,0
6100,'1',1,1,1,23.703,6.716,0.0,0.0,0.0,0.0,1,1,0
5323,'1',1,1,1,143.362,40.619,0.0,0.0,0.0,0.0,1,1,0
7394,'1',1,1,1,27.084,7.674,0.0,0.0,0.0,0.0,1,1,0
1040,'1',1,1,1,34.206,9.692,0.0,0.0,0.0,0.0,1,1,0
8020,'1',1,1,1,12.217,3.461,0.0,0.0,0.0,0.0,1,1,0
6158,'1',1,1,1,3.543,1.004,0.0,0.0,0.0,0.0,1,1,0
7128,'1',1,1,1,46.288,13.115,0.0,0.0,0.0,0.0,1,1,0
2090,'1',1,1,1,1.65,0.468,0.0,0.0,0.0,0.0,1,1,0
3036,'1',1,1,1,3.786,1.072,0.0,0.0,0.0,0.0,1,1,0
4064,'1',1,1,1,6.146,1.741,0.0,0.0,0.0,0.0,1,1,0
1014,'1',1,1,1,1.712,0.485,0.0,0.0,0.0,0.0,1,1,0
5307,'1',1,1,1,93.787,26.573,0.0,0.0,0.0,0.0,1,1,0
5171,'1',1,1,1,0.696,0.197,0.0,0.0,0.0,0.0,1,1,0
7396,'1',1,1,1,18.455,5.229,0.0,0.0,0.0,0.0,1,1,0
5470,'1',1,1,1,46.07,13.053,0.0,0.0,0.0,0.0,1,1,0
6357,'1',1,1,1,19.378,5.491,0.0,0.0,0.0,0.0,1,1,0
7198,'1',1,1,1,62.346,17.665,0.0,0.0,0.0,0.0,1,1,0
4122,'1',1,1,1,101.85,28.857,0.0,0.0,0.0,0.0,1,1,0
5393,'1',1,1,1,9.747,2.762,0.0,0.0,0.0,0.0,1,1,0
6114,'1',1,1,1,44.337,12.562,0.0,0.0,0.0,0.0,1,1,0
3124,'1',1,1,1,42.111,11.932,0.0,0.0,0.0,0.0,1,1,0
7275,'1',1,1,1,30.626,8.677,0.0,0.0,0.0,0.0,1,1,0
2032,'1',1,1,1,2.283,0.647,0.0,0.0,0.0,0.0,1,1,0
5454,'1',1,1,1,31.202,8.841,0.0,0.0,0.0,0.0,1,1,0
5090,'1',1,1,1,71.044,20.129,0.0,0.0,0.0,0.0,1,1,0
5377,'1',1,1,1,37.643,10.665,0.0,0.0,0.0,0.0,1,1,0
7225,'1',1,1,1,80.671,22.857,0.0,0.0,0.0,0.0,1,1,0
3021,'1',1,1,1,1.267,0.359,0.0,0.0,0.0,0.0,1,1,0
4132,'1',1,1,1,23.068,6.536,0.0,0.0,0.0,0.0,1,1,0
8041,'1',1,1,1,37.162,10.529,0.0,0.0,0.0,0.0,1,1,0
5351,'1',1,1,1,113.861,32.261,0.0,0.0,0.0,0.0,1,1,0
1086,'1',1,1,1,30.592,8.668,0.0,0.0,0.0,0.0,1,1,0
7362,'1',1,1,1,40.553,11.49,0.0,0.0,0.0,0.0,1,1,0
6019,'1',1,1,1,37.127,10.519,0.0,0.0,0.0,0.0,1,1,0
3066,'1',1,1,1,14.378,4.074,0.0,0.0,0.0,0.0,1,1,0
5194,'1',1,1,1,38.55,10.923,0.0,0.0,0.0,0.0,1,1,0
3142,'1',1,1,1,4.612,1.307,0.0,0.0,0.0,0.0,1,1,0
3005,'1',1,1,1,4.79,1.357,0.0,0.0,0.0,0.0,1,1,0
8025,'1',1,1,1,35.747,10.128,0.0,0.0,0.0,0.0,1,1,0
6224,'1',1,1,1,73.331,20.777,0.0,0.0,0.0,0.0,1,1,0
2007,'1',1,1,1,6.495,1.84,0.0,0.0,0.0,0.0,1,1,0
7214,'1',1,1,1,60.732,17.208,0.0,0.0,0.0,0.0,1,1,0
7364,'1',1,1,1,10.329,2.926,0.0,0.0,0.0,0.0,1,1,0
7027,'1',1,1,1,79.066,22.402,0.0,0.0,0.0,0.0,1,1,0
5482,'1',1,1,1,45.198,12.806,0.0,0.0,0.0,0.0,1,1,0
5345,'1',1,1,1,21.636,6.13,0.0,0.0,0.0,0.0,1,1,0
6200,'1',1,1,1,29.088,8.242,0.0,0.0,0.0,0.0,1,1,0
5421,'1',1,1,1,1.315,0.373,0.0,0.0,0.0,0.0,1,1,0
5062,'1',1,1,1,28.576,8.097,0.0,0.0,0.0,0.0,1,1,0
6204,'1',1,1,1,4.908,1.391,0.0,0.0,0.0,0.0,1,1,0
6227,'1',1,1,1,79.414,22.501,0.0,0.0,0.0,0.0,1,1,0
2112,'1',1,1,1,3.092,0.876,0.0,0.0,0.0,0.0,1,1,0
7174,'1',1,1,1,90.252,25.572,0.0,0.0,0.0,0.0,1,1,0
5127,'1',1,1,1,2.543,0.721,0.0,0.0,0.0,0.0,1,1,0
6218,'1',1,1,1,32.207,9.125,0.0,0.0,0.0,0.0,1,1,0
8040,'1',1,1,1,12.738,3.61,0.0,0.0,0.0,0.0,1,1,0
7223,'1',1,1,1,35.923,10.178,0.0,0.0,0.0,0.0,1,1,0
6176,'1',1,1,1,28.485,8.071,0.0,0.0,0.0,0.0,1,1,0
3101,'1',1,1,1,6.154,1.743,0.0,0.0,0.0,0.0,1,1,0
6286,'1',1,1,1,51.962,14.723,0.0,0.0,0.0,0.0,1,1,0
3146,'1',1,1,1,7.853,2.225,0.0,0.0,0.0,0.0,1,1,0
5441,'1',1,1,1,94.85,26.874,0.0,0.0,0.0,0.0,1,1,0
6132,'1',1,1,1,40.688,11.528,0.0,0.0,0.0,0.0,1,1,0
7295,'1',1,1,1,75.555,21.407,0.0,0.0,0.0,0.0,1,1,0
1037,'1',1,1,1,78.837,22.337,0.0,0.0,0.0,0.0,1,1,0
5142,'1',1,1,1,10.149,2.875,0.0,0.0,0.0,0.0,1,1,0
6221,'1',1,1,1,5.758,1.632,0.0,0.0,0.0,0.0,1,1,0
5072,'1',1,1,1,47.258,13.39,0.0,0.0,0.0,0.0,1,1,0
2087,'1',1,1,1,5.376,1.523,0.0,0.0,0.0,0.0,1,1,0
6252,'1',1,1,1,8.476,2.402,0.0,0.0,0.0,0.0,1,1,0
4035,'1',1,1,1,55.182,15.635,0.0,0.0,0.0,0.0,1,1,0
6151,'1',1,1,1,10.146,2.875,0.0,0.0,0.0,0.0,1,1,0
4139,'1',1,1,1,7.401,2.097,0.0,0.0,0.0,0.0,1,1,0
5256,'1',1,1,1,0.851,0.241,0.0,0.0,0.0,0.0,1,1,0
3069,'1',1,1,1,2.488,0.705,0.0,0.0,0.0,0.0,1,1,0
2132,'1',1,1,1,8.129,2.303,0.0,0.0,0.0,0.0,1,1,0
5187,'1',1,1,1,10.066,2.852,0.0,0.0,0.0,0.0,1,1,0
7259,'1',1,1,1,105.731,29.957,0.0,0.0,0.0,0.0,1,1,0
5264,'1',1,1,1,7.922,2.245,0.0,0.0,0.0,0.0,1,1,0
4119,'1',1,1,1,38.738,10.976,0.0,0.0,0.0,0.0,1,1,0
5230,'1',1,1,1,43.362,12.286,0.0,0.0,0.0,0.0,1,1,0
7004,'1',1,1,1,160.647,45.517,0.0,0.0,0.0,0.0,1,1,0
5043,'1',1,1,1,44.491,12.606,0.0,0.0,0.0,0.0,1,1,0
6314,'1',1,1,1,18.55,5.256,0.0,0.0,0.0,0.0,1,1,0
5153,'1',1,1,1,10.441,2.958,0.0,0.0,0.0,0.0,1,1,0
8160,'1',1,1,1,63.909,18.108,0.0,0.0,0.0,0.0,1,1,0
5435,'1',1,1,1,2.938,0.832,0.0,0.0,0.0,0.0,1,1,0
8090,'1',1,1,1,10.709,3.034,0.0,0.0,0.0,0.0,1,1,0
5428,'1',1,1,1,55.704,15.783,0.0,0.0,0.0,0.0,1,1,0
6123,'1',1,1,1,28.351,8.033,0.0,0.0,0.0,0.0,1,1,0
6241,'1',1,1,1,110.452,31.294,0.0,0.0,0.0,0.0,1,1,0
8062,'1',1,1,1,7.178,2.034,0.0,0.0,0.0,0.0,1,1,0
7300,'1',1,1,1,39.347,11.148,0.0,0.0,0.0,0.0,1,1,0
5232,'1',1,1,1,32.649,9.25,0.0,0.0,0.0,0.0,1,1,0
7050,'1',1,1,1,52.143,14.774,0.0,0.0,0.0,0.0,1,1,0
5087,'1',1,1,1,2.699,0.765,0.0,0.0,0.0,0.0,1,1,0
8022,'1',1,1,1,4.848,1.374,0.0,0.0,0.0,0.0,1,1,0
7245,'1',1,1,1,71.515,20.263,0.0,0.0,0.0,0.0,1,1,0
5284,'1',1,1,1,29.168,8.264,0.0,0.0,0.0,0.0,1,1,0
5010,'1',1,1,1,87.457,24.779,0.0,0.0,0.0,0.0,1,1,0
2025,'1',1,1,1,26.972,7.642,0.0,0.0,0.0,0.0,1,1,0
8107,'1',1,1,1,6.485,1.837,0.0,0.0,0.0,0.0,1,1,0
4012,'1',1,1,1,9.578,2.714,0.0,0.0,0.0,0.0,1,1,0
1027,'1',1,1,1,78.046,22.113,0.0,0.0,0.0,0.0,1,1,0
7143,'1',1,1,1,43.406,12.298,0.0,0.0,0.0,0.0,1,1,0
4100,'1',1,1,1,35.273,9.994,0.0,0.0,0.0,0.0,1,1,0
2109,'1',1,1,1,23.018,6.522,0.0,0.0,0.0,0.0,1,1,0
2009,'1',1,1,1,26.643,7.549,0.0,0.0,0.0,0.0,1,1,0
5328,'1',1,1,1,8.91,2.524,0.0,0.0,0.0,0.0,1,1,0
7255,'1',1,1,1,42.705,12.1,0.0,0.0,0.0,0.0,1,1,0
5294,'1',1,1,1,72.62,20.576,0.0,0.0,0.0,0.0,1,1,0
6044,'1',1,1,1,11.5,3.258,0.0,0.0,0.0,0.0,1,1,0
7155,'1',1,1,1,56.763,16.083,0.0,0.0,0.0,0.0,1,1,0
6175,'1',1,1,1,60.715,17.203,0.0,0.0,0.0,0.0,1,1,0
5046,'1',1,1,1,50.375,14.273,0.0,0.0,0.0,0.0,1,1,0
6002,'1',1,1,1,20.413,5.784,0.0,0.0,0.0,0.0,1,1,0
7344,'1',1,1,1,73.411,20.8,0.0,0.0,0.0,0.0,1,1,0
3008,'1',1,1,1,12.925,3.662,0.0,0.0,0.0,0.0,1,1,0
7188,'1',1,1,1,55.44,15.708,0.0,0.0,0.0,0.0,1,1,0
6154,'1',1,1,1,27.09,7.675,0.0,0.0,0.0,0.0,1,1,0
5091,'1',1,1,1,3.485,0.987,0.0,0.0,0.0,0.0,1,1,0
5338,'1',1,1,1,52.432,14.856,0.0,0.0,0.0,0.0,1,1,0
7148,'1',1,1,1,43.042,12.195,0.0,0.0,0.0,0.0,1,1,0
5030,'1',1,1,1,52.007,14.735,0.0,0.0,0.0,0.0,1,1,0
6120,'1',1,1,1,122.748,34.779,0.0,0.0,0.0,0.0,1,1,0
6256,'1',1,1,1,11.47,3.25,0.0,0.0,0.0,0.0,1,1,0
4016,'1',1,1,1,4.354,1.234,0.0,0.0,0.0,0.0,1,1,0
7317,'1',1,1,1,103.453,29.312,0.0,0.0,0.0,0.0,1,1,0
6012,'1',1,1,1,8.489,2.405,0.0,0.0,0.0,0.0,1,1,0
3030,'1',1,1,1,84.642,23.982,0.0,0.0,0.0,0.0,1,1,0
6157,'1',1,1,1,18.105,5.13,0.0,0.0,0.0,0.0,1,1,0
5074,'1',1,1,1,20.76,5.882,0.0,0.0,0.0,0.0,1,1,0
6185,'1',1,1,1,13.097,3.711,0.0,0.0,0.0,0.0,1,1,0
8096,'1',1,1,1,7.863,2.228,0.0,0.0,0.0,0.0,1,1,0
6311,'1',1,1,1,5.395,1.529,0.0,0.0,0.0,0.0,1,1,0
7405,'1',1,1,1,38.555,10.924,0.0,0.0,0.0,0.0,1,1,0
5193,'1',1,1,1,88.049,24.947,0.0,0.0,0.0,0.0,1,1,0
3139,'1',1,1,1,9.733,2.758,0.0,0.0,0.0,0.0,1,1,0
5050,'1',1,1,1,42.205,11.958,0.0,0.0,0.0,0.0,1,1,0
7432,'1',1,1,1,16.607,4.705,0.0,0.0,0.0,0.0,1,1,0
1030,'1',1,1,1,18.99,5.38,0.0,0.0,0.0,0.0,1,1,0
6356,'1',1,1,1,85.429,24.205,0.0,0.0,0.0,0.0,1,1,0
6159,'1',1,1,1,57.221,16.213,0.0,0.0,0.0,0.0,1,1,0
3010,'1',1,1,1,3.048,0.864,0.0,0.0,0.0,0.0,1,1,0
5392,'1',1,1,1,4.896,1.387,0.0,0.0,0.0,0.0,1,1,0
3123,'1',1,1,1,43.108,12.214,0.0,0.0,0.0,0.0,1,1,0
5468,'1',1,1,1,27.524,7.798,0.0,0.0,0.0,0.0,1,1,0
7273,'1',1,1,1,28.517,8.08,0.0,0.0,0.0,0.0,1,1,0
2048,'1',1,1,1,4.369,1.238,0.0,0.0,0.0,0.0,1,1,0
5126,'1',1,1,1,113.162,32.062,0.0,0.0,0.0,0.0,1,1,0
6217,'1',1,1,1,33.29,9.432,0.0,0.0,0.0,0.0,1,1,0
5210,'1',1,1,1,25.895,7.337,0.0,0.0,0.0,0.0,1,1,0
...
0 / end load section
0 / end fixed shunt section
8048,'1',0.0,0.0,87.89,-19.17,1.04,0,0.0,0.0,1.0,0.0,0.0,1.0,1,1.0,172.67,51.8,1,1.0,0,1.0,0,1.0,0,1.0,0,1.0
7287,'1',0.0,0.0,0.0,0.0,1.0249772,0,0.0,0.0,1.0,0.0,0.0,1.0,1,1.0,7.448,0.0,1,1.0,0,1.0,0,1.0,0,1.0,0,1.0
5326,'1',0.0,0.0,144.59,-31.53,1.0318867,0,0.0,0.0,1.0,0.0,0.0,1.0,1,1.0,284.07,85.22,1,1.0,0,1.0,0,1.0,0,1.0,0,1.0
4166,'1',0.0,0.0,42.81,-28.94,1.0083344,0,0.0,0.0,1.0,0.0,0.0,1.0,1,1.0,16.4,0.0,1,1.0,0,1.0,0,1.0,0,1.0,0,1.0
2115,'1',0.0,0.0,94.02,-20.5,1.0185246,0,0.0,0.0,1.0,0.0,0.0,1.0,1,1.0,184.72,55.41,1,1.0,0,1.0,0,1.0,0,1.0,0,1.0
6247,'1',0.0,0.0,93.32,-20.35,1.04,0,0.0,0.0,1.0,0.0,0.0,1.0,1,1.0,183.33,55.0,1,1.0,0,1.0,0,1.0,0,1.0,0,1.0
4030,'1',0.0,0.0,290.04,-75.93,1.01,0,0.0,0.0,1.0,0.0,0.0,1.0,1,1.0,622.4,186.72,1,1.0,0,1.0,0,1.0,0,1.0,0,1.0
6074,'1',0.0,0.0,92.32,-20.13,1.03,0,0.0,0.0,1.0,0.0,0.0,1.0,1,1.0,181.37,54.41,1,1.0,0,1.0,0,1.0,0,1.0,0,1.0
7034,'1',0.0,0.0,0.0,0.0,1.0217499,0,0.0,0.0,1.0,0.0,0.0,1.0,0,1.0,4.4,1.32,1,1.0,0,1.0,0,1.0,0,1.0,0,1.0
7281,'1',0.0,0.0,7.64,-1.67,1.0206569,0,0.0,0.0,1.0,0.0,0.0,1.0,0,1.0,15.0,4.5,1,1.0,0,1.0,0,1.0,0,1.0,0,1.0
5320,'1',0.0,0.0,133.77,-29.17,1.022078,0,0.0,0.0,1.0,0.0,0.0,1.0,0,1.0,262.8,78.84,1,1.0,0,1.0,0,1.0,0,1.0,0,1.0
6086,'1',0.0,0.0,0.0,0.0,1.0154274,0,0.0,0.0,1.0,0.0,0.0,1.0,1,1.0,7.123,5.731,1,1.0,0,1.0,0,1.0,0,1.0,0,1.0
7374,'1',0.0,0.0,54.6,-11.91,1.04,0,0.0,0.0,1.0,0.0,0.0,1.0,1,1.0,107.27,32.18,1,1.0,0,1.0,0,1.0,0,1.0,0,1.0
6267,'1',0.0,0.0,2.727,-0.12,1.0282232,0,0.0,0.0,1.0,0.0,0.0,1.0,1,1.0,0.0,0.0,1,1.0,0,1.0,0,1.0,0,1.0,0,1.0
5444,'7',0.0,0.0,71.92,-15.68,1.0197974,0,0.0,0.0,1.0,0.0,0.0,1.0,1,1.0,141.3,42.39,1,1.0,0,1.0,0,1.0,0,1.0,0,1.0
6106,'1',0.0,0.0,61.59,-13.43,1.0311614,0,0.0,0.0,1.0,0.0,0.0,1.0,1,1.0,121.0,36.3,1,1.0,0,1.0,0,1.0,0,1.0,0,1.0
5416,'1',0.0,0.0,62.1,-13.54,1.021661,0,0.0,0.0,1.0,0.0,0.0,1.0,1,1.0,122.0,36.6,1,1.0,0,1.0,0,1.0,0,1.0,0,1.0
5364,'1',0.0,0.0,108.59,-23.68,1.0145136,0,0.0,0.0,1.0,0.0,0.0,1.0,1,1.0,213.33,64.0,1,1.0,0,1.0,0,1.0,0,1.0,0,1.0
5303,'1',0.0,0.0,236.05,-51.48,1.04,0,0.0,0.0,1.0,0.0,0.0,1.0,1,1.0,463.75,139.13,1,1.0,0,1.0,0,1.0,0,1.0,0,1.0
2062,'1',0.0,0.0,28.84,-19.5,1.02,0,0.0,0.0,1.0,0.0,0.0,1.0,1,1.0,56.5,0.0,1,1.0,0,1.0,0,1.0,0,1.0,0,1.0
8130,'1',0.0,0.0,307.56,-80.52,1.03,0,0.0,0.0,1.0,0.0,0.0,1.0,1,1.0,660.0,198.0,1,1.0,0,1.0,0,1.0,0,1.0,0,1.0
7406,'2',0.0,0.0,157.79,-34.41,1.026298,0,0.0,0.0,1.0,0.0,0.0,1.0,1,1.0,310.0,93.0,1,1.0,0,1.0,0,1.0,0,1.0,0,1.0
6090,'1',0.0,0.0,0.0,0.0,1.0152987,0,0.0,0.0,1.0,0.0,0.0,1.0,1,1.0,9.664,7.775,1,1.0,0,1.0,0,1.0,0,1.0,0,1.0
8077,'1',0.0,0.0,119.56,-26.07,1.03,0,0.0,0.0,1.0,0.0,0.0,1.0,1,1.0,234.9,70.47,1,1.0,0,1.0,0,1.0,0,1.0,0,1.0
3044,'1',0.0,0.0,45.5,-9.92,1.0286988,0,0.0,0.0,1.0,0.0,0.0,1.0,0,1.0,89.4,26.82,1,1.0,0,1.0,0,1.0,0,1.0,0,1.0
7079,'1',0.0,0.0,116.38,-25.38,1.0281779,0,0.0,0.0,1.0,0.0,0.0,1.0,1,1.0,228.65,68.59,1,1.0,0,1.0,0,1.0,0,1.0,0,1.0
1004,'1',0.0,0.0,44.94,-30.38,1.018037,0,0.0,0.0,1.0,0.0,0.0,1.0,1,1.0,140.2,0.0,1,1.0,0,1.0,0,1.0,0,1.0,0,1.0
7422,'8',0.0,0.0,87.65,-19.11,1.04,0,0.0,0.0,1.0,0.0,0.0,1.0,1,1.0,172.2,51.66,1,1.0,0,1.0,0,1.0,0,1.0,0,1.0
8061,'1',0.0,0.0,276.52,-72.39,1.037129,0,0.0,0.0,1.0,0.0,0.0,1.0,0,1.0,593.4,178.02,1,1.0,0,1.0,0,1.0,0,1.0,0,1.0
2004,'1',0.0,0.0,199.43,-43.49,1.0246012,0,0.0,0.0,1.0,0.0,0.0,1.0,0,1.0,391.8,117.54,1,1.0,0,1.0,0,1.0,0,1.0,0,1.0
7371,'1',0.0,0.0,54.6,-11.91,1.04,0,0.0,0.0,1.0,0.0,0.0,1.0,1,1.0,107.27,32.18,1,1.0,0,1.0,0,1.0,0,1.0,0,1.0
7063,'1',0.0,0.0,58.48,-12.75,1.021807,0,0.0,0.0,1.0,0.0,0.0,1.0,1,1.0,114.9,34.47,1,1.0,0,1.0,0,1.0,0,1.0,0,1.0
1006,'1',0.0,0.0,7.31,-4.94,1.0,0,0.0,0.0,1.0,0.0,0.0,1.0,1,1.0,26.6,0.0,1,1.0,0,1.0,0,1.0,0,1.0,0,1.0
4138,'1',0.0,0.0,33.59,-7.33,1.015,0,0.0,0.0,1.0,0.0,0.0,1.0,0,1.0,66.0,19.8,1,1.0,0,1.0,0,1.0,0,1.0,0,1.0
6049,'1',0.0,0.0,4.89,-1.07,1.0282083,0,0.0,0.0,1.0,0.0,0.0,1.0,0,1.0,9.6,2.88,1,1.0,0,1.0,0,1.0,0,1.0,0,1.0
5368,'1',0.0,0.0,108.59,-23.68,1.0132455,0,0.0,0.0,1.0,0.0,0.0,1.0,1,1.0,213.33,64.0,1,1.0,0,1.0,0,1.0,0,1.0,0,1.0
3062,'1',0.0,0.0,35.28,-23.85,1.04,0,0.0,0.0,1.0,0.0,0.0,1.0,1,1.0,95.3,0.0,1,1.0,0,1.0,0,1.0,0,1.0,0,1.0
7355,'1',0.0,0.0,348.26,-75.95,1.04,0,0.0,0.0,1.0,0.0,0.0,1.0,1,1.0,684.2,205.26,1,1.0,0,1.0,0,1.0,0,1.0,0,1.0
7329,'1',0.0,0.0,51.87,-11.31,1.04,0,0.0,0.0,1.0,0.0,0.0,1.0,1,1.0,101.9,30.57,1,1.0,0,1.0,0,1.0,0,1.0,0,1.0
1076,'1',0.0,0.0,97.8,-21.33,1.0105701,0,0.0,0.0,1.0,0.0,0.0,1.0,0,1.0,192.13,57.64,1,1.0,0,1.0,0,1.0,0,1.0,0,1.0
5367,'1',0.0,0.0,108.59,-23.68,1.0111391,0,0.0,0.0,1.0,0.0,0.0,1.0,1,1.0,213.33,64.0,1,1.0,0,1.0,0,1.0,0,1.0,0,1.0
7138,'1',0.0,0.0,193.78,-42.26,1.028142,0,0.0,0.0,1.0,0.0,0.0,1.0,1,1.0,380.7,114.21,1,1.0,0,1.0,0,1.0,0,1.0,0,1.0
7007,'1',0.0,0.0,82.97,-18.09,1.04,0,0.0,0.0,1.0,0.0,0.0,1.0,1,1.0,163.0,48.9,1,1.0,0,1.0,0,1.0,0,1.0,0,1.0
2105,'1',0.0,0.0,136.28,-29.72,1.0236037,0,0.0,0.0,1.0,0.0,0.0,1.0,0,1.0,267.73,80.32,1,1.0,0,1.0,0,1.0,0,1.0,0,1.0
5069,'1',0.0,0.0,223.08,-48.65,1.03,0,0.0,0.0,1.0,0.0,0.0,1.0,1,1.0,438.27,131.48,1,1.0,0,1.0,0,1.0,0,1.0,0,1.0
2084,'1',0.0,0.0,10.18,-2.22,1.0160377,0,0.0,0.0,1.0,0.0,0.0,1.0,0,1.0,20.0,6.0,1,1.0,0,1.0,0,1.0,0,1.0,0,1.0
6349,'6',0.0,0.0,3.26,-0.71,1.039954,0,0.0,0.0,1.0,0.0,0.0,1.0,0,1.0,6.4,1.92,1,1.0,0,1.0,0,1.0,0,1.0,0,1.0
7162,'1',0.0,0.0,56.3,-12.28,1.0392708,0,0.0,0.0,1.0,0.0,0.0,1.0,1,1.0,110.6,33.18,1,1.0,0,1.0,0,1.0,0,1.0,0,1.0
3118,'1',0.0,0.0,25.56,-17.28,1.0,0,0.0,0.0,1.0,0.0,0.0,1.0,1,1.0,67.1,0.0,1,1.0,0,1.0,0,1.0,0,1.0,0,1.0
2104,'1',0.0,0.0,136.28,-29.72,1.0236037,0,0.0,0.0,1.0,0.0,0.0,1.0,0,1.0,267.73,80.32,1,1.0,0,1.0,0,1.0,0,1.0,0,1.0
4160,'1',0.0,0.0,100.66,-21.95,1.03,0,0.0,0.0,1.0,0.0,0.0,1.0,1,1.0,197.77,59.33,1,1.0,0,1.0,0,1.0,0,1.0,0,1.0
3092,'1',0.0,0.0,42.6,-28.8,1.04,0,0.0,0.0,1.0,0.0,0.0,1.0,1,1.0,92.5,0.0,1,1.0,0,1.0,0,1.0,0,1.0,0,1.0
8035,'1',0.0,0.0,119.58,-26.08,1.0292819,0,0.0,0.0,1.0,0.0,0.0,1.0,0,1.0,234.93,70.48,1,1.0,0,1.0,0,1.0,0,1.0,0,1.0
7428,'5',0.0,0.0,51.16,-11.16,1.04,0,0.0,0.0,1.0,0.0,0.0,1.0,1,1.0,100.52,30.16,1,1.0,0,1.0,0,1.0,0,1.0,0,1.0
1053,'1',0.0,0.0,91.01,-19.85,1.0134861,0,0.0,0.0,1.0,0.0,0.0,1.0,0,1.0,178.8,53.64,1,1.0,0,1.0,0,1.0,0,1.0,0,1.0
3020,'1',0.0,0.0,31.95,-21.6,1.03,0,0.0,0.0,1.0,0.0,0.0,1.0,1,1.0,125.9,0.0,1,1.0,0,1.0,0,1.0,0,1.0,0,1.0
7209,'1',0.0,0.0,389.39,-84.92,1.04,0,0.0,0.0,1.0,0.0,0.0,1.0,1,1.0,765.0,229.5,1,1.0,0,1.0,0,1.0,0,1.0,0,1.0
7419,'2',0.0,0.0,44.89,-9.79,1.0076403,0,0.0,0.0,1.0,0.0,0.0,1.0,1,1.0,88.2,26.46,1,1.0,0,1.0,0,1.0,0,1.0,0,1.0
6244,'1',0.0,0.0,151.68,-33.08,1.04,0,0.0,0.0,1.0,0.0,0.0,1.0,1,1.0,298.0,89.4,1,1.0,0,1.0,0,1.0,0,1.0,0,1.0
7081,'1',0.0,0.0,116.38,-25.38,1.0269585,0,0.0,0.0,1.0,0.0,0.0,1.0,1,1.0,228.65,68.59,1,1.0,0,1.0,0,1.0,0,1.0,0,1.0
4135,'1',0.0,0.0,17.1,-3.73,1.0100401,0,0.0,0.0,1.0,0.0,0.0,1.0,1,1.0,33.6,10.08,1,1.0,0,1.0,0,1.0,0,1.0,0,1.0
6083,'1',0.0,0.0,25.044,-1.08,1.04,0,0.0,0.0,1.0,0.0,0.0,1.0,1,1.0,0.0,0.0,1,1.0,0,1.0,0,1.0,0,1.0,0,1.0
8070,'1',0.0,0.0,431.0,-112.84,1.0301497,0,0.0,0.0,1.0,0.0,0.0,1.0,0,1.0,924.9,277.47,1,1.0,0,1.0,0,1.0,0,1.0,0,1.0
1021,'1',0.0,0.0,42.49,-28.73,1.0,0,0.0,0.0,1.0,0.0,0.0,1.0,1,1.0,135.9,0.0,1,1.0,0,1.0,0,1.0,0,1.0,0,1.0
6167,'1',0.0,0.0,119.64,-26.09,1.03,0,0.0,0.0,1.0,0.0,0.0,1.0,1,1.0,235.05,70.52,1,1.0,0,1.0,0,1.0,0,1.0,0,1.0
7422,'11',0.0,0.0,87.65,-19.11,1.04,0,0.0,0.0,1.0,0.0,0.0,1.0,1,1.0,172.2,51.66,1,1.0,0,1.0,0,1.0,0,1.0,0,1.0
1057,'1',0.0,0.0,25.56,-17.28,1.015,0,0.0,0.0,1.0,0.0,0.0,1.0,0,1.0,51.3,0.0,1,1.0,0,1.0,0,1.0,0,1.0,0,1.0
5238,'1',0.0,0.0,47.93,-32.4,1.0274345,0,0.0,0.0,1.0,0.0,0.0,1.0,1,1.0,59.9,0.0,1,1.0,0,1.0,0,1.0,0,1.0,0,1.0
7142,'1',0.0,0.0,30.03,-6.55,1.028824,0,0.0,0.0,1.0,0.0,0.0,1.0,1,1.0,59.0,17.7,1,1.0,0,1.0,0,1.0,0,1.0,0,1.0
7194,'1',0.0,0.0,117.55,-25.64,1.03,0,0.0,0.0,1.0,0.0,0.0,1.0,1,1.0,230.95,69.28,1,1.0,0,1.0,0,1.0,0,1.0,0,1.0
5300,'1',0.0,0.0,58.53,-12.76,1.0349664,0,0.0,0.0,1.0,0.0,0.0,1.0,1,1.0,115.0,34.5,1,1.0,0,1.0,0,1.0,0,1.0,0,1.0
7280,'1',0.0,0.0,13.08,-2.85,1.0206569,0,0.0,0.0,1.0,0.0,0.0,1.0,0,1.0,25.7,7.71,1,1.0,0,1.0,0,1.0,0,1.0,0,1.0
7335,'1',0.0,0.0,211.33,-55.33,1.04,0,0.0,0.0,1.0,0.0,0.0,1.0,1,1.0,453.5,136.05,1,1.0,0,1.0,0,1.0,0,1.0,0,1.0
3039,'1',0.0,0.0,44.52,-30.1,1.04,0,0.0,0.0,1.0,0.0,0.0,1.0,1,1.0,85.5,0.0,1,1.0,0,1.0,0,1.0,0,1.0,0,1.0
7008,'1',0.0,0.0,82.97,-18.09,1.04,0,0.0,0.0,1.0,0.0,0.0,1.0,1,1.0,163.0,48.9,1,1.0,0,1.0,0,1.0,0,1.0,0,1.0
6266,'1',0.0,0.0,1.719,-0.07,1.0176519,0,0.0,0.0,1.0,0.0,0.0,1.0,1,1.0,0.0,0.0,1,1.0,0,1.0,0,1.0,0,1.0,0,1.0
4192,'10',0.0,0.0,93.54,-20.4,1.02,0,0.0,0.0,1.0,0.0,0.0,1.0,1,1.0,183.77,55.13,1,1.0,0,1.0,0,1.0,0,1.0,0,1.0
6105,'1',0.0,0.0,30.79,-6.72,1.0368014,0,0.0,0.0,1.0,0.0,0.0,1.0,1,1.0,60.5,18.15,1,1.0,0,1.0,0,1.0,0,1.0,0,1.0
7376,'1',0.0,0.0,93.48,-20.39,1.04,0,0.0,0.0,1.0,0.0,0.0,1.0,1,1.0,183.66,55.1,1,1.0,0,1.0,0,1.0,0,1.0,0,1.0
5207,'1',0.0,0.0,126.57,-27.6,1.0159744,0,0.0,0.0,1.0,0.0,0.0,1.0,1,1.0,248.67,74.6,1,1.0,0,1.0,0,1.0,0,1.0,0,1.0
5107,'1',0.0,0.0,2.66,-0.7,1.003033,0,0.0,0.0,1.0,0.0,0.0,1.0,0,1.0,5.7,1.71,1,1.0,0,1.0,0,1.0,0,1.0,0,1.0
7311,'1',0.0,0.0,98.42,-21.46,1.0389957,0,0.0,0.0,1.0,0.0,0.0,1.0,1,1.0,193.37,58.01,1,1.0,0,1.0,0,1.0,0,1.0,0,1.0
4192,'9',0.0,0.0,93.54,-20.4,1.02,0,0.0,0.0,1.0,0.0,0.0,1.0,1,1.0,183.77,55.13,1,1.0,0,1.0,0,1.0,0,1.0,0,1.0
8050,'1',0.0,0.0,87.89,-19.17,1.0317634,0,0.0,0.0,1.0,0.0,0.0,1.0,0,1.0,172.67,51.8,1,1.0,0,1.0,0,1.0,0,1.0,0,1.0
7428,'8',0.0,0.0,41.23,-8.99,1.04,0,0.0,0.0,1.0,0.0,0.0,1.0,0,1.0,81.0,24.3,1,1.0,0,1.0,0,1.0,0,1.0,0,1.0
7400,'3',0.0,0.0,36.65,-7.99,1.0300959,0,0.0,0.0,1.0,0.0,0.0,1.0,1,1.0,72.0,21.6,1,1.0,0,1.0,0,1.0,0,1.0,0,1.0
3043,'1',0.0,0.0,0.66,-0.14,1.0286988,0,0.0,0.0,1.0,0.0,0.0,1.0,0,1.0,1.3,0.39,1,1.0,0,1.0,0,1.0,0,1.0,0,1.0
6301,'1',0.0,0.0,1.63,-0.36,1.0237613,0,0.0,0.0,1.0,0.0,0.0,1.0,0,1.0,3.2,0.96,1,1.0,0,1.0,0,1.0,0,1.0,0,1.0
8060,'1',0.0,0.0,276.52,-72.39,1.037129,0,0.0,0.0,1.0,0.0,0.0,1.0,0,1.0,593.4,178.02,1,1.0,0,1.0,0,1.0,0,1.0,0,1.0
7370,'1',0.0,0.0,54.6,-11.91,1.04,0,0.0,0.0,1.0,0.0,0.0,1.0,1,1.0,107.27,32.18,1,1.0,0,1.0,0,1.0,0,1.0,0,1.0
7309,'1',0.0,0.0,49.21,-10.73,1.02781,0,0.0,0.0,1.0,0.0,0.0,1.0,0,1.0,96.68,29.0,1,1.0,0,1.0,0,1.0,0,1.0,0,1.0
7122,'1',0.0,0.0,2.19,-0.48,0.99627284,0,0.0,0.0,1.0,0.0,0.0,1.0,0,1.0,4.3,1.29,1,1.0,0,1.0,0,1.0,0,1.0,0,1.0
2089,'1',0.0,0.0,14.4,-9.73,1.0030509,0,0.0,0.0,1.0,0.0,0.0,1.0,1,1.0,37.0,0.0,1,1.0,0,1.0,0,1.0,0,1.0,0,1.0
6048,'1',0.0,0.0,1.73,-0.38,1.0282083,0,0.0,0.0,1.0,0.0,0.0,1.0,0,1.0,3.4,1.02,1,1.0,0,1.0,0,1.0,0,1.0,0,1.0
7373,'1',0.0,0.0,54.6,-11.91,1.0392659,0,0.0,0.0,1.0,0.0,0.0,1.0,1,1.0,107.27,32.18,1,1.0,0,1.0,0,1.0,0,1.0,0,1.0
4058,'1',0.0,0.0,73.3,-15.98,1.03,0,0.0,0.0,1.0,0.0,0.0,1.0,1,1.0,144.0,43.2,1,1.0,0,1.0,0,1.0,0,1.0,0,1.0
7098,'1',0.0,0.0,498.38,-111.05,1.0,0,0.0,0.0,1.0,0.0,0.0,1.0,1,1.0,1354.3,406.29,1,1.0,0,1.0,0,1.0,0,1.0,0,1.0
6269,'1',0.0,0.0,2.727,-0.12,1.0292243,0,0.0,0.0,1.0,0.0,0.0,1.0,1,1.0,0.0,0.0,1,1.0,0,1.0,0,1.0,0,1.0,0,1.0
5058,'1',0.0,0.0,161.53,-35.23,1.0190225,0,0.0,0.0,1.0,0.0,0.0,1.0,1,1.0,317.35,95.2,1,1.0,0,1.0,0,1.0,0,1.0,0,1.0
6295,'1',0.0,0.0,104.97,-22.89,1.0307036,0,0.0,0.0,1.0,0.0,0.0,1.0,1,1.0,206.23,61.87,1,1.0,0,1.0,0,1.0,0,1.0,0,1.0
7406,'1',0.0,0.0,32.12,-7.0,1.026298,0,0.0,0.0,1.0,0.0,0.0,1.0,1,1.0,63.1,18.93,1,1.0,0,1.0,0,1.0,0,1.0,0,1.0
4060,'1',0.0,0.0,73.3,-15.98,1.03,0,0.0,0.0,1.0,0.0,0.0,1.0,1,1.0,144.0,43.2,1,1.0,0,1.0,0,1.0,0,1.0,0,1.0
1075,'1',0.0,0.0,97.8,-21.33,1.01,0,0.0,0.0,1.0,0.0,0.0,1.0,1,1.0,192.13,57.64,1,1.0,0,1.0,0,1.0,0,1.0,0,1.0
5281,'1',0.0,0.0,136.28,-29.72,1.0270202,0,0.0,0.0,1.0,0.0,0.0,1.0,1,1.0,267.73,80.32,1,1.0,0,1.0,0,1.0,0,1.0,0,1.0
5366,'1',0.0,0.0,108.59,-23.68,1.0110669,0,0.0,0.0,1.0,0.0,0.0,1.0,1,1.0,213.33,64.0,1,1.0,0,1.0,0,1.0,0,1.0,0,1.0
4096,'1',0.0,0.0,13.05,-3.42,1.0081649,0,0.0,0.0,1.0,0.0,0.0,1.0,0,1.0,28.0,8.4,1,1.0,0,1.0,0,1.0,0,1.0,0,1.0
5068,'1',0.0,0.0,223.08,-48.65,1.03,0,0.0,0.0,1.0,0.0,0.0,1.0,1,1.0,438.27,131.48,1,1.0,0,1.0,0,1.0,0,1.0,0,1.0
2006,'1',0.0,0.0,199.43,-43.49,1.0246012,0,0.0,0.0,1.0,0.0,0.0,1.0,0,1.0,391.8,117.54,1,1.0,0,1.0,0,1.0,0,1.0,0,1.0
5325,'1',0.0,0.0,144.59,-31.53,1.04,0,0.0,0.0,1.0,0.0,0.0,1.0,1,1.0,284.07,85.22,1,1.0,0,1.0,0,1.0,0,1.0,0,1.0
1042,'1',0.0,0.0,25.96,-17.55,1.001159,0,0.0,0.0,1.0,0.0,0.0,1.0,0,1.0,82.6,0.0,1,1.0,0,1.0,0,1.0,0,1.0,0,1.0
7136,'1',0.0,0.0,105.13,-22.93,1.0267801,0,0.0,0.0,1.0,0.0,0.0,1.0,1,1.0,206.55,61.97,1,1.0,0,1.0,0,1.0,0,1.0,0,1.0
3074,'1',0.0,0.0,21.26,-14.37,1.0,0,0.0,0.0,1.0,0.0,0.0,1.0,1,1.0,29.2,0.0,1,1.0,0,1.0,0,1.0,0,1.0,0,1.0
7357,'1',0.0,0.0,8.3,-1.81,1.0387779,0,0.0,0.0,1.0,0.0,0.0,1.0,1,1.0,16.3,4.89,1,1.0,0,1.0,0,1.0,0,1.0,0,1.0
3086,'1',0.0,0.0,15.97,-10.8,1.0,0,0.0,0.0,1.0,0.0,0.0,1.0,1,1.0,23.1,0.0,1,1.0,0,1.0,0,1.0,0,1.0,0,1.0
1074,'1',0.0,0.0,97.8,-21.33,1.01,0,0.0,0.0,1.0,0.0,0.0,1.0,1,1.0,192.13,57.64,1,1.0,0,1.0,0,1.0,0,1.0,0,1.0
6259,'1',0.0,0.0,26.16,-5.71,1.0317405,0,0.0,0.0,1.0,0.0,0.0,1.0,0,1.0,51.4,15.42,1,1.0,0,1.0,0,1.0,0,1.0,0,1.0
4082,'1',0.0,0.0,123.89,-27.02,1.04,0,0.0,0.0,1.0,0.0,0.0,1.0,1,1.0,243.4,73.02,1,1.0,0,1.0,0,1.0,0,1.0,0,1.0
7113,'1',0.0,0.0,99.76,-21.76,1.04,0,0.0,0.0,1.0,0.0,0.0,1.0,1,1.0,196.0,58.8,1,1.0,0,1.0,0,1.0,0,1.0,0,1.0
7114,'1',0.0,0.0,99.76,-21.76,1.04,0,0.0,0.0,1.0,0.0,0.0,1.0,1,1.0,196.0,58.8,1,1.0,0,1.0,0,1.0,0,1.0,0,1.0
4195,'1',0.0,0.0,19.6,-13.25,1.0262988,0,0.0,0.0,1.0,0.0,0.0,1.0,1,1.0,28.9,0.0,1,1.0,0,1.0,0,1.0,0,1.0,0,1.0
6164,'1',0.0,0.0,119.64,-26.09,1.03,0,0.0,0.0,1.0,0.0,0.0,1.0,1,1.0,235.05,70.52,1,1.0,0,1.0,0,1.0,0,1.0,0,1.0
4134,'1',0.0,0.0,17.1,-3.73,1.009644,0,0.0,0.0,1.0,0.0,0.0,1.0,1,1.0,33.6,10.08,1,1.0,0,1.0,0,1.0,0,1.0,0,1.0
6110,'1',0.0,0.0,275.22,-72.05,1.04,0,0.0,0.0,1.0,0.0,0.0,1.0,1,1.0,590.6,177.18,1,1.0,0,1.0,0,1.0,0,1.0,0,1.0
3120,'1',0.0,0.0,0.0,0.0,1.0100937,0,0.0,0.0,1.0,0.0,0.0,1.0,1,1.0,8.034,8.034,1,1.0,0,1.0,0,1.0,0,1.0,0,1.0
3068,'1',0.0,0.0,31.95,-21.6,1.04,0,0.0,0.0,1.0,0.0,0.0,1.0,1,1.0,103.8,0.0,1,1.0,0,1.0,0,1.0,0,1.0,0,1.0
5023,'1',0.0,0.0,2.44,-0.53,1.0191284,0,0.0,0.0,1.0,0.0,0.0,1.0,0,1.0,4.8,1.44,1,1.0,0,1.0,0,1.0,0,1.0,0,1.0
5415,'1',0.0,0.0,62.1,-13.54,1.0218327,0,0.0,0.0,1.0,0.0,0.0,1.0,1,1.0,122.0,36.6,1,1.0,0,1.0,0,1.0,0,1.0,0,1.0
7140,'1',0.0,0.0,30.03,-6.55,1.0284164,0,0.0,0.0,1.0,0.0,0.0,1.0,1,1.0,59.0,17.7,1,1.0,0,1.0,0,1.0,0,1.0,0,1.0
4162,'1',0.0,0.0,100.66,-21.95,1.03,0,0.0,0.0,1.0,0.0,0.0,1.0,1,1.0,197.77,59.33,1,1.0,0,1.0,0,1.0,0,1.0,0,1.0
6041,'1',0.0,0.0,20.48,-0.88,1.0392701,0,0.0,0.0,1.0,0.0,0.0,1.0,1,1.0,0.0,0.0,1,1.0,0,1.0,0,1.0,0,1.0,0,1.0
5299,'1',0.0,0.0,58.53,-12.76,1.0370487,0,0.0,0.0,1.0,0.0,0.0,1.0,1,1.0,115.0,34.5,1,1.0,0,1.0,0,1.0,0,1.0,0,1.0
1052,'1',0.0,0.0,45.5,-9.92,1.0010948,0,0.0,0.0,1.0,0.0,0.0,1.0,1,1.0,89.4,26.82,1,1.0,0,1.0,0,1.0,0,1.0,0,1.0
6272,'1',0.0,0.0,2.727,-0.12,1.0135948,0,0.0,0.0,1.0,0.0,0.0,1.0,0,1.0,7.2,0.0,1,1.0,0,1.0,0,1.0,0,1.0,0,1.0
6051,'1',0.0,0.0,29.22,-6.37,1.0354727,0,0.0,0.0,1.0,0.0,0.0,1.0,1,1.0,57.4,17.22,1,1.0,0,1.0,0,1.0,0,1.0,0,1.0
2024,'1',0.0,0.0,84.83,-18.5,1.0217504,0,0.0,0.0,1.0,0.0,0.0,1.0,1,1.0,166.67,50.0,1,1.0,0,1.0,0,1.0,0,1.0,0,1.0
7023,'1',0.0,0.0,24.13,-5.26,1.0374755,0,0.0,0.0,1.0,0.0,0.0,1.0,1,1.0,47.4,14.22,1,1.0,0,1.0,0,1.0,0,1.0,0,1.0
6246,'1',0.0,0.0,151.68,-33.08,1.04,0,0.0,0.0,1.0,0.0,0.0,1.0,1,1.0,298.0,89.4,1,1.0,0,1.0,0,1.0,0,1.0,0,1.0
7422,'1',0.0,0.0,3.46,-0.75,1.04,0,0.0,0.0,1.0,0.0,0.0,1.0,1,1.0,6.8,2.04,1,1.0,0,1.0,0,1.0,0,1.0,0,1.0
6009,'1',0.0,0.0,100.95,-22.01,1.04,0,0.0,0.0,1.0,0.0,0.0,1.0,1,1.0,198.33,59.5,1,1.0,0,1.0,0,1.0,0,1.0,0,1.0
7109,'1',0.0,0.0,25.96,-5.66,1.04,0,0.0,0.0,1.0,0.0,0.0,1.0,1,1.0,51.0,15.3,1,1.0,0,1.0,0,1.0,0,1.0,0,1.0
3106,'1',0.0,0.0,62.477,-2.69,1.0082587,0,0.0,0.0,1.0,0.0,0.0,1.0,1,1.0,0.0,0.0,1,1.0,0,1.0,0,1.0,0,1.0,0,1.0
5343,'1',0.0,0.0,79.667,-3.43,1.04,0,0.0,0.0,1.0,0.0,0.0,1.0,1,1.0,0.0,0.0,1,1.0,0,1.0,0,1.0,0,1.0,0,1.0
5206,'1',0.0,0.0,126.57,-27.6,1.0133218,0,0.0,0.0,1.0,0.0,0.0,1.0,1,1.0,248.67,74.6,1,1.0,0,1.0,0,1.0,0,1.0,0,1.0
7428,'6',0.0,0.0,51.16,-11.16,1.04,0,0.0,0.0,1.0,0.0,0.0,1.0,1,1.0,100.52,30.16,1,1.0,0,1.0,0,1.0,0,1.0,0,1.0
4192,'1',0.0,0.0,38.17,-8.33,1.02,0,0.0,0.0,1.0,0.0,0.0,1.0,1,1.0,75.0,22.5,1,1.0,0,1.0,0,1.0,0,1.0,0,1.0
7170,'1',0.0,0.0,178.59,-38.95,1.04,0,0.0,0.0,1.0,0.0,0.0,1.0,1,1.0,350.87,105.26,1,1.0,0,1.0,0,1.0,0,1.0,0,1.0
4047,'1',0.0,0.0,75.102,-3.23,1.02,0,0.0,0.0,1.0,0.0,0.0,1.0,1,1.0,0.0,0.0,1,1.0,0,1.0,0,1.0,0,1.0,0,1.0
6079,'1',0.0,0.0,262.51,-68.73,1.0194097,0,0.0,0.0,1.0,0.0,0.0,1.0,1,1.0,563.33,169.0,1,1.0,0,1.0,0,1.0,0,1.0,0,1.0
5302,'1',0.0,0.0,236.05,-51.48,1.04,0,0.0,0.0,1.0,0.0,0.0,1.0,1,1.0,463.75,139.13,1,1.0,0,1.0,0,1.0,0,1.0,0,1.0
3017,'1',0.0,0.0,36.1,-24.41,1.01,0,0.0,0.0,1.0,0.0,0.0,1.0,1,1.0,95.8,0.0,1,1.0,0,1.0,0,1.0,0,1.0,0,1.0
7121,'1',0.0,0.0,1.88,-0.41,0.99627284,0,0.0,0.0,1.0,0.0,0.0,1.0,0,1.0,3.7,1.11,1,1.0,0,1.0,0,1.0,0,1.0,0,1.0
4052,'1',0.0,0.0,22.5,-4.91,1.0394754,0,0.0,0.0,1.0,0.0,0.0,1.0,1,1.0,44.2,13.26,1,1.0,0,1.0,0,1.0,0,1.0,0,1.0
4075,'1',0.0,0.0,89.75,-19.57,1.0139578,0,0.0,0.0,1.0,0.0,0.0,1.0,0,1.0,176.33,52.9,1,1.0,0,1.0,0,1.0,0,1.0,0,1.0
8152,'1',0.0,0.0,11.2,-2.44,1.0141781,0,0.0,0.0,1.0,0.0,0.0,1.0,0,1.0,22.0,6.6,1,1.0,0,1.0,0,1.0,0,1.0,0,1.0
6268,'1',0.0,0.0,1.719,-0.07,1.0165326,0,0.0,0.0,1.0,0.0,0.0,1.0,1,1.0,0.0,0.0,1,1.0,0,1.0,0,1.0,0,1.0,0,1.0
4192,'8',0.0,0.0,93.54,-20.4,1.02,0,0.0,0.0,1.0,0.0,0.0,1.0,1,1.0,183.77,55.13,1,1.0,0,1.0,0,1.0,0,1.0,0,1.0
4192,'3',0.0,0.0,31.05,-6.77,1.02,0,0.0,0.0,1.0,0.0,0.0,1.0,1,1.0,61.0,18.3,1,1.0,0,1.0,0,1.0,0,1.0,0,1.0
4059,'1',0.0,0.0,73.3,-15.98,1.03,0,0.0,0.0,1.0,0.0,0.0,1.0,1,1.0,144.0,43.2,1,1.0,0,1.0,0,1.0,0,1.0,0,1.0
6243,'1',0.0,0.0,93.15,-20.31,1.04,0,0.0,0.0,1.0,0.0,0.0,1.0,1,1.0,183.0,54.9,1,1.0,0,1.0,0,1.0,0,1.0,0,1.0
3061,'1',0.0,0.0,35.28,-23.85,1.04,0,0.0,0.0,1.0,0.0,0.0,1.0,1,1.0,4.8,0.0,1,1.0,0,1.0,0,1.0,0,1.0,0,1.0
1049,'1',0.0,0.0,165.53,-36.1,1.0085447,0,0.0,0.0,1.0,0.0,0.0,1.0,0,1.0,325.2,97.56,1,1.0,0,1.0,0,1.0,0,1.0,0,1.0
1023,'1',0.0,0.0,38.34,-25.92,1.01,0,0.0,0.0,1.0,0.0,0.0,1.0,1,1.0,21.7,0.0,1,1.0,0,1.0,0,1.0,0,1.0,0,1.0
1062,'1',0.0,0.0,0.0,0.0,1.0051671,0,0.0,0.0,1.0,0.0,0.0,1.0,0,1.0,1.5,0.45,1,1.0,0,1.0,0,1.0,0,1.0,0,1.0
1033,'1',0.0,0.0,59.21,-40.03,1.0085441,0,0.0,0.0,1.0,0.0,0.0,1.0,1,1.0,120.2,0.0,1,1.0,0,1.0,0,1.0,0,1.0,0,1.0
5324,'1',0.0,0.0,144.59,-31.53,1.04,0,0.0,0.0,1.0,0.0,0.0,1.0,1,1.0,284.07,85.22,1,1.0,0,1.0,0,1.0,0,1.0,0,1.0
2083,'1',0.0,0.0,10.18,-2.22,1.02,0,0.0,0.0,1.0,0.0,0.0,1.0,1,1.0,20.0,6.0,1,1.0,0,1.0,0,1.0,0,1.0,0,1.0
3055,'1',0.0,0.0,52.22,-35.3,1.04,0,0.0,0.0,1.0,0.0,0.0,1.0,1,1.0,101.4,0.0,1,1.0,0,1.0,0,1.0,0,1.0,0,1.0
7349,'1',0.0,0.0,159.74,-34.83,1.04,0,0.0,0.0,1.0,0.0,0.0,1.0,1,1.0,313.83,94.15,1,1.0,0,1.0,0,1.0,0,1.0,0,1.0
3141,'1',0.0,0.0,19.49,-13.18,1.0132814,0,0.0,0.0,1.0,0.0,0.0,1.0,1,1.0,59.6,0.0,1,1.0,0,1.0,0,1.0,0,1.0,0,1.0
4192,'5',0.0,0.0,135.9,-29.64,1.02,0,0.0,0.0,1.0,0.0,0.0,1.0,1,1.0,267.0,80.1,1,1.0,0,1.0,0,1.0,0,1.0,0,1.0
1043,'1',0.0,0.0,12.52,-8.47,1.0,0,0.0,0.0,1.0,0.0,0.0,1.0,1,1.0,39.8,0.0,1,1.0,0,1.0,0,1.0,0,1.0,0,1.0
1072,'1',0.0,0.0,97.8,-21.33,1.01,0,0.0,0.0,1.0,0.0,0.0,1.0,1,1.0,192.13,57.64,1,1.0,0,1.0,0,1.0,0,1.0,0,1.0
6146,'1',0.0,0.0,227.01,-49.51,1.03,0,0.0,0.0,1.0,0.0,0.0,1.0,1,1.0,446.0,133.8,1,1.0,0,1.0,0,1.0,0,1.0,0,1.0
7400,'6',0.0,0.0,227.22,-49.55,1.0300959,0,0.0,0.0,1.0,0.0,0.0,1.0,1,1.0,446.4,133.92,1,1.0,0,1.0,0,1.0,0,1.0,0,1.0
7164,'1',0.0,0.0,56.3,-12.28,1.04,0,0.0,0.0,1.0,0.0,0.0,1.0,1,1.0,110.6,33.18,1,1.0,0,1.0,0,1.0,0,1.0,0,1.0
4177,'1',0.0,0.0,31.95,-21.6,1.04,0,0.0,0.0,1.0,0.0,0.0,1.0,1,1.0,148.6,0.0,1,1.0,0,1.0,0,1.0,0,1.0,0,1.0
4192,'7',0.0,0.0,135.9,-29.64,1.02,0,0.0,0.0,1.0,0.0,0.0,1.0,1,1.0,267.0,80.1,1,1.0,0,1.0,0,1.0,0,1.0,0,1.0
4153,'1',0.0,0.0,60.32,-40.78,1.0364825,0,0.0,0.0,1.0,0.0,0.0,1.0,1,1.0,23.1,0.0,1,1.0,0,1.0,0,1.0,0,1.0,0,1.0
5444,'2',0.0,0.0,147.1,-32.08,1.0197974,0,0.0,0.0,1.0,0.0,0.0,1.0,0,1.0,289.0,86.7,1,1.0,0,1.0,0,1.0,0,1.0,0,1.0
8088,'1',0.0,0.0,418.33,-109.52,1.04,0,0.0,0.0,1.0,0.0,0.0,1.0,1,1.0,897.7,269.31,1,1.0,0,1.0,0,1.0,0,1.0,0,1.0
6303,'1',0.0,0.0,125.85,-27.44,1.0218516,0,0.0,0.0,1.0,0.0,0.0,1.0,1,1.0,247.25,74.18,1,1.0,0,1.0,0,1.0,0,1.0,0,1.0
7190,'1',0.0,0.0,24.43,-5.33,1.03,0,0.0,0.0,1.0,0.0,0.0,1.0,1,1.0,48.0,14.4,1,1.0,0,1.0,0,1.0,0,1.0,0,1.0
3098,'1',0.0,0.0,34.08,-23.04,1.04,0,0.0,0.0,1.0,0.0,0.0,1.0,1,1.0,128.7,0.0,1,1.0,0,1.0,0,1.0,0,1.0,0,1.0
3133,'3',0.0,0.0,26.11,-5.69,1.0221189,0,0.0,0.0,1.0,0.0,0.0,1.0,0,1.0,51.3,15.39,1,1.0,0,1.0,0,1.0,0,1.0,0,1.0
6245,'1',0.0,0.0,151.68,-33.08,1.04,0,0.0,0.0,1.0,0.0,0.0,1.0,1,1.0,298.0,89.4,1,1.0,0,1.0,0,1.0,0,1.0,0,1.0
6008,'1',0.0,0.0,100.95,-22.01,1.04,0,0.0,0.0,1.0,0.0,0.0,1.0,1,1.0,198.33,59.5,1,1.0,0,1.0,0,1.0,0,1.0,0,1.0
7021,'1',0.0,0.0,11.4,-2.49,1.0351786,0,0.0,0.0,1.0,0.0,0.0,1.0,1,1.0,22.4,6.72,1,1.0,0,1.0,0,1.0,0,1.0,0,1.0
7108,'1',0.0,0.0,25.96,-5.66,1.04,0,0.0,0.0,1.0,0.0,0.0,1.0,1,1.0,51.0,15.3,1,1.0,0,1.0,0,1.0,0,1.0,0,1.0
5170,'1',0.0,0.0,12.78,-8.64,1.0115855,0,0.0,0.0,1.0,0.0,0.0,1.0,1,1.0,18.8,0.0,1,1.0,0,1.0,0,1.0,0,1.0,0,1.0
8071,'1',0.0,0.0,431.0,-112.84,1.0185085,0,0.0,0.0,1.0,0.0,0.0,1.0,1,1.0,924.9,277.47,1,1.0,0,1.0,0,1.0,0,1.0,0,1.0
4062,'1',0.0,0.0,87.72,-19.13,1.03,0,0.0,0.0,1.0,0.0,0.0,1.0,1,1.0,172.33,51.7,1,1.0,0,1.0,0,1.0,0,1.0,0,1.0
7210,'1',0.0,0.0,90.86,-19.81,1.04,0,0.0,0.0,1.0,0.0,0.0,1.0,1,1.0,178.5,53.55,1,1.0,0,1.0,0,1.0,0,1.0,0,1.0
7005,'1',0.0,0.0,82.97,-18.09,1.04,0,0.0,0.0,1.0,0.0,0.0,1.0,1,1.0,163.0,48.9,1,1.0,0,1.0,0,1.0,0,1.0,0,1.0
6349,'10',0.0,0.0,26.21,-5.72,1.039954,0,0.0,0.0,1.0,0.0,0.0,1.0,0,1.0,51.5,15.45,1,1.0,0,1.0,0,1.0,0,1.0,0,1.0
7289,'1',0.0,0.0,0.0,0.0,1.0249554,0,0.0,0.0,1.0,0.0,0.0,1.0,1,1.0,10.646,0.0,1,1.0,0,1.0,0,1.0,0,1.0,0,1.0
6007,'1',0.0,0.0,216.83,-47.29,1.0358119,0,0.0,0.0,1.0,0.0,0.0,1.0,0,1.0,426.0,127.8,1,1.0,0,1.0,0,1.0,0,1.0,0,1.0
4046,'1',0.0,0.0,10.936,-0.47,1.02,0,0.0,0.0,1.0,0.0,0.0,1.0,1,1.0,0.0,0.0,1,1.0,0,1.0,0,1.0,0,1.0,0,1.0
5301,'1',0.0,0.0,42.09,-9.18,1.0371448,0,0.0,0.0,1.0,0.0,0.0,1.0,1,1.0,82.7,24.81,1,1.0,0,1.0,0,1.0,0,1.0,0,1.0
7025,'1',0.0,0.0,1.63,-0.36,1.0292386,0,0.0,0.0,1.0,0.0,0.0,1.0,0,1.0,3.2,0.96,1,1.0,0,1.0,0,1.0,0,1.0,0,1.0
7112,'1',0.0,0.0,99.76,-21.76,1.04,0,0.0,0.0,1.0,0.0,0.0,1.0,1,1.0,196.0,58.8,1,1.0,0,1.0,0,1.0,0,1.0,0,1.0
...
0 / end generator section
5227,5114,'1',0.005,0.03803,0.01997,310.0,310.0,310.0,0.0,0.0,0.0,0.0,1,1,0.0,1,1.0,0,1.0,0,1.0,0,1.0
7333,7144,'1',0.00251,0.01716,0.00292,221.0,221.0,221.0,0.0,0.0,0.0,0.0,1,1,0.0,1,1.0,0,1.0,0,1.0,0,1.0
2063,2046,'1',0.00363,0.02051,0.01103,251.0,251.0,251.0,0.0,0.0,0.0,0.0,1,1,0.0,1,1.0,0,1.0,0,1.0,0,1.0
4148,4118,'1',0.0246,0.14051,0.02111,98.0,98.0,98.0,0.0,0.0,0.0,0.0,1,1,0.0,1,1.0,0,1.0,0,1.0,0,1.0
2046,2034,'1',0.00468,0.01993,0.00997,187.0,187.0,187.0,0.0,0.0,0.0,0.0,1,1,0.0,1,1.0,0,1.0,0,1.0,0,1.0
5049,2113,'1',0.00053,0.01087,0.75821,2768.0,2768.0,2768.0,0.0,0.0,0.0,0.0,1,1,0.0,1,1.0,0,1.0,0,1.0,0,1.0
7075,7004,'2',0.00199,0.01386,0.00227,250.0,250.0,250.0,0.0,0.0,0.0,0.0,1,1,0.0,1,1.0,0,1.0,0,1.0,0,1.0
6180,6125,'1',0.00599,0.02482,0.00421,149.0,149.0,149.0,0.0,0.0,0.0,0.0,1,1,0.0,1,1.0,0,1.0,0,1.0,0,1.0
5376,5323,'1',0.00121,0.00887,0.00503,310.0,310.0,310.0,0.0,0.0,0.0,0.0,1,1,0.0,1,1.0,0,1.0,0,1.0,0,1.0
7089,7388,'1',0.00679,0.02818,0.00478,149.0,149.0,149.0,0.0,0.0,0.0,0.0,1,1,0.0,1,1.0,0,1.0,0,1.0,0,1.0
6027,6012,'1',0.00646,0.04503,0.00736,221.0,221.0,221.0,0.0,0.0,0.0,0.0,1,1,0.0,1,1.0,0,1.0,0,1.0,0,1.0
7087,7127,'3',0.00301,0.01945,0.00371,250.0,250.0,250.0,0.0,0.0,0.0,0.0,1,1,0.0,1,1.0,0,1.0,0,1.0,0,1.0
6177,6308,'1',0.00546,0.03901,0.07112,443.0,443.0,443.0,0.0,0.0,0.0,0.0,1,1,0.0,1,1.0,0,1.0,0,1.0,0,1.0
1019,1040,'1',0.04978,0.20651,0.03504,149.0,149.0,149.0,0.0,0.0,0.0,0.0,1,1,0.0,1,1.0,0,1.0,0,1.0,0,1.0
7260,7243,'1',0.00509,0.03286,0.00627,221.0,221.0,221.0,0.0,0.0,0.0,0.0,1,1,0.0,1,1.0,0,1.0,0,1.0,0,1.0
4053,4152,'2',0.0091,0.06213,0.01057,221.0,221.0,221.0,0.0,0.0,0.0,0.0,1,1,0.0,1,1.0,0,1.0,0,1.0,0,1.0
6212,6081,'1',0.00581,0.0241,0.00409,149.0,149.0,149.0,0.0,0.0,0.0,0.0,1,1,0.0,1,1.0,0,1.0,0,1.0,0,1.0
6153,6324,'2',0.00612,0.0418,0.00711,221.0,221.0,221.0,0.0,0.0,0.0,0.0,1,1,0.0,1,1.0,0,1.0,0,1.0,0,1.0
5265,5016,'1',0.00128,0.00972,0.00511,409.0,409.0,409.0,0.0,0.0,0.0,0.0,1,1,0.0,1,1.0,0,1.0,0,1.0,0,1.0
7180,7298,'2',0.00299,0.02086,0.00341,221.0,221.0,221.0,0.0,0.0,0.0,0.0,1,1,0.0,1,1.0,0,1.0,0,1.0,0,1.0
4078,4180,'1',0.01569,0.08959,0.01346,98.0,98.0,98.0,0.0,0.0,0.0,0.0,1,1,0.0,1,1.0,0,1.0,0,1.0,0,1.0
8072,8011,'1',0.00722,0.05031,0.00822,221.0,221.0,221.0,0.0,0.0,0.0,0.0,1,1,0.0,1,1.0,0,1.0,0,1.0,0,1.0
5047,5444,'1',0.00019,0.00235,0.15601,2020.0,2020.0,2020.0,0.0,0.0,0.0,0.0,1,1,0.0,1,1.0,0,1.0,0,1.0,0,1.0
3123,3073,'1',0.01212,0.06921,0.0104,98.0,98.0,98.0,0.0,0.0,0.0,0.0,1,1,0.0,1,1.0,0,1.0,0,1.0,0,1.0
8104,8012,'1',0.01361,0.05953,0.00907,149.0,149.0,149.0,0.0,0.0,0.0,0.0,1,1,0.0,1,1.0,0,1.0,0,1.0,0,1.0
8038,8066,'1',0.01227,0.05467,0.00802,149.0,149.0,149.0,0.0,0.0,0.0,0.0,1,1,0.0,1,1.0,0,1.0,0,1.0,0,1.0
2007,2114,'1',0.00888,0.05207,0.026,251.0,251.0,251.0,0.0,0.0,0.0,0.0,1,1,0.0,1,1.0,0,1.0,0,1.0,0,1.0
4099,4037,'1',0.01617,0.07075,0.01077,149.0,149.0,149.0,0.0,0.0,0.0,0.0,1,1,0.0,1,1.0,0,1.0,0,1.0,0,1.0
5161,5272,'1',0.00401,0.01705,0.00853,310.0,310.0,310.0,0.0,0.0,0.0,0.0,1,1,0.0,1,1.0,0,1.0,0,1.0,0,1.0
6044,6323,'1',0.0021,0.01432,0.00244,221.0,221.0,221.0,0.0,0.0,0.0,0.0,1,1,0.0,1,1.0,0,1.0,0,1.0,0,1.0
6034,6343,'1',0.00082,0.00798,0.01535,548.0,548.0,548.0,0.0,0.0,0.0,0.0,1,1,0.0,1,1.0,0,1.0,0,1.0,0,1.0
4149,4018,'1',0.01472,0.06561,0.00962,149.0,149.0,149.0,0.0,0.0,0.0,0.0,1,1,0.0,1,1.0,0,1.0,0,1.0,0,1.0
7087,7336,'1',0.00167,0.01143,0.00194,250.0,250.0,250.0,0.0,0.0,0.0,0.0,1,1,0.0,1,1.0,0,1.0,0,1.0,0,1.0
8094,8159,'1',0.00239,0.02336,0.04495,548.0,548.0,548.0,0.0,0.0,0.0,0.0,1,1,0.0,1,1.0,0,1.0,0,1.0,0,1.0
3014,3124,'1',0.04522,0.19779,0.03012,149.0,149.0,149.0,0.0,0.0,0.0,0.0,1,1,0.0,1,1.0,0,1.0,0,1.0,0,1.0
7223,7404,'1',0.0068,0.02978,0.00454,221.0,221.0,221.0,0.0,0.0,0.0,0.0,1,1,0.0,1,1.0,0,1.0,0,1.0,0,1.0
7051,7181,'1',0.00631,0.03605,0.00542,98.0,98.0,98.0,0.0,0.0,0.0,0.0,1,1,0.0,1,1.0,0,1.0,0,1.0,0,1.0
6177,6299,'1',0.00682,0.06665,0.12825,548.0,548.0,548.0,0.0,0.0,0.0,0.0,1,1,0.0,1,1.0,0,1.0,0,1.0,0,1.0
6043,6236,'1',0.0039,0.02665,0.00453,221.0,221.0,221.0,0.0,0.0,0.0,0.0,1,1,0.0,1,1.0,0,1.0,0,1.0,0,1.0
5053,5357,'2',0.00118,0.00895,0.0047,310.0,310.0,310.0,0.0,0.0,0.0,0.0,1,1,0.0,1,1.0,0,1.0,0,1.0,0,1.0
5103,5072,'5',0.00114,0.00868,0.00456,310.0,310.0,310.0,0.0,0.0,0.0,0.0,1,1,0.0,1,1.0,0,1.0,0,1.0,0,1.0
7161,7292,'1',0.00143,0.00999,0.0,221.1,221.1,221.1,0.0,0.0,0.0,0.0,1,1,0.0,1,1.0,0,1.0,0,1.0,0,1.0
6212,3014,'1',0.01229,0.05481,0.00804,149.0,149.0,149.0,0.0,0.0,0.0,0.0,1,1,0.0,1,1.0,0,1.0,0,1.0,0,1.0
4175,4101,'1',0.01931,0.08013,0.0136,149.0,149.0,149.0,0.0,0.0,0.0,0.0,1,1,0.0,1,1.0,0,1.0,0,1.0,0,1.0
7217,7276,'1',0.01308,0.03197,0.00419,150.0,150.0,150.0,0.0,0.0,0.0,0.0,1,1,0.0,1,1.0,0,1.0,0,1.0,0,1.0
5335,5425,'1',0.00232,0.01697,0.00961,310.0,310.0,310.0,0.0,0.0,0.0,0.0,1,1,0.0,1,1.0,0,1.0,0,1.0,0,1.0
6019,6306,'1',0.01058,0.02586,0.00339,98.0,98.0,98.0,0.0,0.0,0.0,0.0,1,1,0.0,1,1.0,0,1.0,0,1.0,0,1.0
1082,1069,'1',0.02137,0.0952,0.01396,149.0,149.0,149.0,0.0,0.0,0.0,0.0,1,1,0.0,1,1.0,0,1.0,0,1.0,0,1.0
1020,3059,'1',0.0189,0.06,0.006,300.0,300.0,300.0,0.0,0.0,0.0,0.0,1,1,0.0,1,1.0,0,1.0,0,1.0,0,1.0
5291,5438,'1',0.00699,0.03084,0.01436,187.0,187.0,187.0,0.0,0.0,0.0,0.0,1,1,0.0,1,1.0,0,1.0,0,1.0,0,1.0
7092,7258,'1',0.00224,0.0098,0.00149,149.0,149.0,149.0,0.0,0.0,0.0,0.0,1,1,0.0,1,1.0,0,1.0,0,1.0,0,1.0
8147,8044,'1',0.00245,0.02399,0.04616,647.0,647.0,647.0,0.0,0.0,0.0,0.0,1,1,0.0,1,1.0,0,1.0,0,1.0,0,1.0
5317,5260,'1',4e-05,0.00088,0.07608,4352.0,4352.0,4352.0,0.0,0.0,0.0,0.0,1,1,0.0,1,1.0,0,1.0,0,1.0,0,1.0
5341,5465,'2',0.00307,0.02252,0.01276,310.0,310.0,310.0,0.0,0.0,0.0,0.0,1,1,0.0,1,1.0,0,1.0,0,1.0,0,1.0
6280,6202,'1',0.02835,0.06931,0.00908,115.0,115.0,115.0,0.0,0.0,0.0,0.0,1,1,0.0,1,1.0,0,1.0,0,1.0,0,1.0
6107,6033,'1',0.00039,0.00803,0.56039,2768.0,2768.0,2768.0,0.0,0.0,0.0,0.0,1,1,0.0,1,1.0,0,1.0,0,1.0,0,1.0
8027,8134,'1',0.00435,0.02974,0.00506,221.0,221.0,221.0,0.0,0.0,0.0,0.0,1,1,0.0,1,1.0,0,1.0,0,1.0,0,1.0
2110,2037,'1',0.00307,0.01798,0.00898,251.0,251.0,251.0,0.0,0.0,0.0,0.0,1,1,0.0,1,1.0,0,1.0,0,1.0,0,1.0
6200,6275,'1',0.00286,0.01632,0.00245,98.0,98.0,98.0,0.0,0.0,0.0,0.0,1,1,0.0,1,1.0,0,1.0,0,1.0,0,1.0
4159,4168,'4',0.00057,0.00394,0.00064,250.0,250.0,250.0,0.0,0.0,0.0,0.0,1,1,0.0,1,1.0,0,1.0,0,1.0,0,1.0
5154,5151,'1',0.00778,0.0343,0.01597,187.0,187.0,187.0,0.0,0.0,0.0,0.0,1,1,0.0,1,1.0,0,1.0,0,1.0,0,1.0
5116,5224,'1',0.00199,0.01514,0.00795,310.0,310.0,310.0,0.0,0.0,0.0,0.0,1,1,0.0,1,1.0,0,1.0,0,1.0,0,1.0
7052,7221,'1',0.00969,0.0402,0.00682,149.0,149.0,149.0,0.0,0.0,0.0,0.0,1,1,0.0,1,1.0,0,1.0,0,1.0,0,1.0
6312,6143,'2',0.00214,0.01491,0.00244,250.0,250.0,250.0,0.0,0.0,0.0,0.0,1,1,0.0,1,1.0,0,1.0,0,1.0,0,1.0
8017,8040,'1',0.01458,0.08752,0.01188,98.0,98.0,98.0,0.0,0.0,0.0,0.0,1,1,0.0,1,1.0,0,1.0,0,1.0,0,1.0
5463,5478,'1',0.00106,0.00601,0.00323,409.0,409.0,409.0,0.0,0.0,0.0,0.0,1,1,0.0,1,1.0,0,1.0,0,1.0,0,1.0
1037,1071,'1',0.00669,0.04319,0.00824,300.0,300.0,300.0,0.0,0.0,0.0,0.0,1,1,0.0,1,1.0,0,1.0,0,1.0,0,1.0
6240,6287,'1',0.00218,0.02128,0.04095,647.0,647.0,647.0,0.0,0.0,0.0,0.0,1,1,0.0,1,1.0,0,1.0,0,1.0,0,1.0
7292,7223,'2',0.002,0.01393,0.00228,221.0,221.0,221.0,0.0,0.0,0.0,0.0,1,1,0.0,1,1.0,0,1.0,0,1.0,0,1.0
6275,6324,'2',0.00458,0.02955,0.00564,221.0,221.0,221.0,0.0,0.0,0.0,0.0,1,1,0.0,1,1.0,0,1.0,0,1.0,0,1.0
7132,7283,'1',0.00306,0.0198,0.00378,221.0,221.0,221.0,0.0,0.0,0.0,0.0,1,1,0.0,1,1.0,0,1.0,0,1.0,0,1.0
7014,7124,'1',0.01606,0.03857,0.00523,98.0,98.0,98.0,0.0,0.0,0.0,0.0,1,1,0.0,1,1.0,0,1.0,0,1.0,0,1.0
5250,5385,'3',0.00149,0.0113,0.00593,500.0,500.0,500.0,0.0,0.0,0.0,0.0,1,1,0.0,1,1.0,0,1.0,0,1.0,0,1.0
6337,6199,'1',0.00218,0.01487,0.00253,221.0,221.0,221.0,0.0,0.0,0.0,0.0,1,1,0.0,1,1.0,0,1.0,0,1.0,0,1.0
6047,6150,'1',0.00335,0.02337,0.00382,221.0,221.0,221.0,0.0,0.0,0.0,0.0,1,1,0.0,1,1.0,0,1.0,0,1.0,0,1.0
3010,3076,'1',0.02704,0.16239,0.02204,98.0,98.0,98.0,0.0,0.0,0.0,0.0,1,1,0.0,1,1.0,0,1.0,0,1.0,0,1.0
4033,4190,'1',0.00397,0.01648,0.0028,180.0,180.0,180.0,0.0,0.0,0.0,0.0,1,1,0.0,1,1.0,0,1.0,0,1.0,0,1.0
6360,3101,'1',0.03353,0.08195,0.01073,98.0,98.0,98.0,0.0,0.0,0.0,0.0,1,1,0.0,1,1.0,0,1.0,0,1.0,0,1.0
7221,7093,'1',0.00237,0.0153,0.00292,221.0,221.0,221.0,0.0,0.0,0.0,0.0,1,1,0.0,1,1.0,0,1.0,0,1.0,0,1.0
5191,5151,'1',0.008,0.03526,0.01641,187.0,187.0,187.0,0.0,0.0,0.0,0.0,1,1,0.0,1,1.0,0,1.0,0,1.0,0,1.0
7255,7399,'3',0.00104,0.00673,0.00128,250.0,250.0,250.0,0.0,0.0,0.0,0.0,1,1,0.0,1,1.0,0,1.0,0,1.0,0,1.0
5386,5356,'1',0.001,0.00567,0.00305,251.0,251.0,251.0,0.0,0.0,0.0,0.0,1,1,0.0,1,1.0,0,1.0,0,1.0,0,1.0
5322,5063,'1',0.00026,0.00314,0.20858,2295.0,2295.0,2295.0,0.0,0.0,0.0,0.0,1,1,0.0,1,1.0,0,1.0,0,1.0,0,1.0
8120,8141,'1',0.0166,0.06885,0.01168,221.0,221.0,221.0,0.0,0.0,0.0,0.0,1,1,0.0,1,1.0,0,1.0,0,1.0,0,1.0
8118,8014,'1',0.01481,0.08893,0.01207,98.0,98.0,98.0,0.0,0.0,0.0,0.0,1,1,0.0,1,1.0,0,1.0,0,1.0,0,1.0
7089,7017,'1',0.0044,0.01826,0.0031,221.0,221.0,221.0,0.0,0.0,0.0,0.0,1,1,0.0,1,1.0,0,1.0,0,1.0,0,1.0
7017,7183,'1',0.00737,0.04422,0.006,221.0,221.0,221.0,0.0,0.0,0.0,0.0,1,1,0.0,1,1.0,0,1.0,0,1.0,0,1.0
7105,7332,'1',0.00074,0.00725,0.01395,548.0,548.0,548.0,0.0,0.0,0.0,0.0,1,1,0.0,1,1.0,0,1.0,0,1.0,0,1.0
2088,2070,'1',0.00235,0.01376,0.00687,251.0,251.0,251.0,0.0,0.0,0.0,0.0,1,1,0.0,1,1.0,0,1.0,0,1.0,0,1.0
4184,4194,'1',0.00649,0.04522,0.00739,250.0,250.0,250.0,0.0,0.0,0.0,0.0,1,1,0.0,1,1.0,0,1.0,0,1.0,0,1.0
5378,5079,'1',0.00152,0.00891,0.00445,409.0,409.0,409.0,0.0,0.0,0.0,0.0,1,1,0.0,1,1.0,0,1.0,0,1.0,0,1.0
6241,6153,'2',0.0044,0.03067,0.00501,221.0,221.0,221.0,0.0,0.0,0.0,0.0,1,1,0.0,1,1.0,0,1.0,0,1.0,0,1.0
7238,7392,'1',0.0068,0.039,0.005,221.0,221.0,221.0,0.0,0.0,0.0,0.0,1,1,0.0,1,1.0,0,1.0,0,1.0,0,1.0
7250,7276,'1',0.00404,0.0261,0.00498,221.0,221.0,221.0,0.0,0.0,0.0,0.0,1,1,0.0,1,1.0,0,1.0,0,1.0,0,1.0
8040,8072,'1',0.02142,0.09547,0.014,149.0,149.0,149.0,0.0,0.0,0.0,0.0,1,1,0.0,1,1.0,0,1.0,0,1.0,0,1.0
7070,7398,'1',0.00238,0.01063,0.00156,149.0,149.0,149.0,0.0,0.0,0.0,0.0,1,1,0.0,1,1.0,0,1.0,0,1.0,0,1.0
1046,3009,'1',0.05654,0.23454,0.0398,149.0,149.0,149.0,0.0,0.0,0.0,0.0,1,1,0.0,1,1.0,0,1.0,0,1.0,0,1.0
7282,7367,'1',0.00169,0.01205,0.02197,523.0,523.0,523.0,0.0,0.0,0.0,0.0,1,1,0.0,1,1.0,0,1.0,0,1.0,0,1.0
5430,5172,'1',0.00249,0.01461,0.0073,251.0,251.0,251.0,0.0,0.0,0.0,0.0,1,1,0.0,1,1.0,0,1.0,0,1.0,0,1.0
6188,7305,'1',0.00756,0.05401,0.09846,460.0,460.0,460.0,0.0,0.0,0.0,0.0,1,1,0.0,1,1.0,0,1.0,0,1.0,0,1.0
5047,5179,'1',0.00054,0.01097,0.76512,2768.0,2768.0,2768.0,0.0,0.0,0.0,0.0,1,1,0.0,1,1.0,0,1.0,0,1.0,0,1.0
6283,6100,'1',0.00566,0.0323,0.00485,98.0,98.0,98.0,0.0,0.0,0.0,0.0,1,1,0.0,1,1.0,0,1.0,0,1.0,0,1.0
5004,5426,'1',0.00757,0.04276,0.023,251.0,251.0,251.0,0.0,0.0,0.0,0.0,1,1,0.0,1,1.0,0,1.0,0,1.0,0,1.0
2123,2058,'1',0.00524,0.0231,0.01075,187.0,187.0,187.0,0.0,0.0,0.0,0.0,1,1,0.0,1,1.0,0,1.0,0,1.0,0,1.0
5289,5436,'1',0.00048,0.00367,0.00192,310.0,310.0,310.0,0.0,0.0,0.0,0.0,1,1,0.0,1,1.0,0,1.0,0,1.0,0,1.0
7215,7431,'1',0.00465,0.02075,0.00304,149.0,149.0,149.0,0.0,0.0,0.0,0.0,1,1,0.0,1,1.0,0,1.0,0,1.0,0,1.0
5270,5389,'1',0.00793,0.04646,0.0232,251.0,251.0,251.0,0.0,0.0,0.0,0.0,1,1,0.0,1,1.0,0,1.0,0,1.0,0,1.0
7336,7147,'3',0.00171,0.01165,0.00198,221.0,221.0,221.0,0.0,0.0,0.0,0.0,1,1,0.0,1,1.0,0,1.0,0,1.0,0,1.0
4072,4168,'2',0.00284,0.01981,0.00324,221.0,221.0,221.0,0.0,0.0,0.0,0.0,1,1,0.0,1,1.0,0,1.0,0,1.0,0,1.0
7180,7399,'2',0.00226,0.01457,0.00278,250.0,250.0,250.0,0.0,0.0,0.0,0.0,1,1,0.0,1,1.0,0,1.0,0,1.0,0,1.0
6207,6282,'1',0.01027,0.04493,0.00684,149.0,149.0,149.0,0.0,0.0,0.0,0.0,1,1,0.0,1,1.0,0,1.0,0,1.0,0,1.0
5484,5073,'1',0.0111,0.06505,0.03248,251.0,251.0,251.0,0.0,0.0,0.0,0.0,1,1,0.0,1,1.0,0,1.0,0,1.0,0,1.0
8109,8123,'1',0.00627,0.0358,0.00538,98.0,98.0,98.0,0.0,0.0,0.0,0.0,1,1,0.0,1,1.0,0,1.0,0,1.0,0,1.0
2017,2096,'1',0.00253,0.03068,2.03836,2020.0,2020.0,2020.0,0.0,0.0,0.0,0.0,1,1,0.0,1,1.0,0,1.0,0,1.0,0,1.0
6174,6203,'1',0.00829,0.02025,0.00265,221.0,221.0,221.0,0.0,0.0,0.0,0.0,1,1,0.0,1,1.0,0,1.0,0,1.0,0,1.0
7010,7182,'1',0.01896,0.11385,0.01545,98.0,98.0,98.0,0.0,0.0,0.0,0.0,1,1,0.0,1,1.0,0,1.0,0,1.0,0,1.0
7297,7384,'1',0.00423,0.0185,0.00282,149.0,149.0,149.0,0.0,0.0,0.0,0.0,1,1,0.0,1,1.0,0,1.0,0,1.0,0,1.0
3009,3024,'1',0.0285,0.17117,0.02323,98.0,98.0,98.0,0.0,0.0,0.0,0.0,1,1,0.0,1,1.0,0,1.0,0,1.0,0,1.0
8006,8007,'1',0.00768,0.04613,0.00626,98.0,98.0,98.0,0.0,0.0,0.0,0.0,1,1,0.0,1,1.0,0,1.0,0,1.0,0,1.0
7255,7399,'2',0.00104,0.00673,0.00128,250.0,250.0,250.0,0.0,0.0,0.0,0.0,1,1,0.0,1,1.0,0,1.0,0,1.0,0,1.0
5359,5276,'1',0.00542,0.03062,0.01647,251.0,251.0,251.0,0.0,0.0,0.0,0.0,1,1,0.0,1,1.0,0,1.0,0,1.0,0,1.0
4147,4031,'1',0.02053,0.0898,0.01368,149.0,149.0,149.0,0.0,0.0,0.0,0.0,1,1,0.0,1,1.0,0,1.0,0,1.0,0,1.0
7432,8037,'1',0.0136,0.05948,0.00906,149.0,149.0,149.0,0.0,0.0,0.0,0.0,1,1,0.0,1,1.0,0,1.0,0,1.0,0,1.0
8128,8107,'1',0.01223,0.05352,0.00815,221.0,221.0,221.0,0.0,0.0,0.0,0.0,1,1,0.0,1,1.0,0,1.0,0,1.0,0,1.0
7203,7313,'1',0.018,0.078,0.012,150.0,150.0,150.0,0.0,0.0,0.0,0.0,1,1,0.0,1,1.0,0,1.0,0,1.0,0,1.0
6290,6120,'1',0.00336,0.02297,0.00391,221.0,221.0,221.0,0.0,0.0,0.0,0.0,1,1,0.0,1,1.0,0,1.0,0,1.0,0,1.0
5443,5346,'2',0.0007,0.00512,0.0029,310.0,310.0,310.0,0.0,0.0,0.0,0.0,1,1,0.0,1,1.0,0,1.0,0,1.0,0,1.0
7256,7297,'1',0.00926,0.02263,0.00296,98.0,98.0,98.0,0.0,0.0,0.0,0.0,1,1,0.0,1,1.0,0,1.0,0,1.0,0,1.0
6119,6354,'1',0.00095,0.00925,0.01779,548.0,548.0,548.0,0.0,0.0,0.0,0.0,1,1,0.0,1,1.0,0,1.0,0,1.0,0,1.0
5221,5411,'1',0.00803,0.03536,0.01646,187.0,187.0,187.0,0.0,0.0,0.0,0.0,1,1,0.0,1,1.0,0,1.0,0,1.0,0,1.0
7431,7036,'2',0.00448,0.03123,0.00511,221.0,221.0,221.0,0.0,0.0,0.0,0.0,1,1,0.0,1,1.0,0,1.0,0,1.0,0,1.0
4139,4169,'1',0.01144,0.05002,0.00762,149.0,149.0,149.0,0.0,0.0,0.0,0.0,1,1,0.0,1,1.0,0,1.0,0,1.0,0,1.0
5205,5153,'2',0.00418,0.03177,0.01668,409.0,409.0,409.0,0.0,0.0,0.0,0.0,1,1,0.0,1,1.0,0,1.0,0,1.0,0,1.0
7179,7244,'1',0.00945,0.04213,0.00618,149.0,149.0,149.0,0.0,0.0,0.0,0.0,1,1,0.0,1,1.0,0,1.0,0,1.0,0,1.0
6094,6037,'2',0.00228,0.01555,0.00264,221.0,221.0,221.0,0.0,0.0,0.0,0.0,1,1,0.0,1,1.0,0,1.0,0,1.0,0,1.0
6035,6306,'1',0.00918,0.05241,0.00787,98.0,98.0,98.0,0.0,0.0,0.0,0.0,1,1,0.0,1,1.0,0,1.0,0,1.0,0,1.0
6140,5459,'1',0.01042,0.04644,0.00681,149.0,149.0,149.0,0.0,0.0,0.0,0.0,1,1,0.0,1,1.0,0,1.0,0,1.0,0,1.0
2107,2125,'1',0.0109,0.06393,0.03192,251.0,251.0,251.0,0.0,0.0,0.0,0.0,1,1,0.0,1,1.0,0,1.0,0,1.0,0,1.0
5142,5080,'1',0.00553,0.03127,0.01682,251.0,251.0,251.0,0.0,0.0,0.0,0.0,1,1,0.0,1,1.0,0,1.0,0,1.0,0,1.0
4173,4149,'1',0.02612,0.11641,0.01707,170.0,170.0,170.0,0.0,0.0,0.0,0.0,1,1,0.0,1,1.0,0,1.0,0,1.0,0,1.0
7290,7102,'1',0.00551,0.02285,0.00388,149.0,149.0,149.0,0.0,0.0,0.0,0.0,1,1,0.0,1,1.0,0,1.0,0,1.0,0,1.0
5356,5431,'1',0.00571,0.0323,0.01737,251.0,251.0,251.0,0.0,0.0,0.0,0.0,1,1,0.0,1,1.0,0,1.0,0,1.0,0,1.0
2022,2040,'1',0.02207,0.09391,0.04697,187.0,187.0,187.0,0.0,0.0,0.0,0.0,1,1,0.0,1,1.0,0,1.0,0,1.0,0,1.0
7067,7344,'1',0.01002,0.02449,0.00321,98.0,98.0,98.0,0.0,0.0,0.0,0.0,1,1,0.0,1,1.0,0,1.0,0,1.0,0,1.0
8145,8107,'1',0.01849,0.08086,0.01231,250.0,250.0,250.0,0.0,0.0,0.0,0.0,1,1,0.0,1,1.0,0,1.0,0,1.0,0,1.0
5306,5022,'2',0.00263,0.02,0.0105,310.0,310.0,310.0,0.0,0.0,0.0,0.0,1,1,0.0,1,1.0,0,1.0,0,1.0,0,1.0
8005,8023,'1',0.00379,0.02588,0.0044,221.0,221.0,221.0,0.0,0.0,0.0,0.0,1,1,0.0,1,1.0,0,1.0,0,1.0,0,1.0
4006,4197,'1',0.00624,0.04344,0.0071,221.0,221.0,221.0,0.0,0.0,0.0,0.0,1,1,0.0,1,1.0,0,1.0,0,1.0,0,1.0
7125,7331,'1',0.00057,0.00696,0.46259,2020.0,2020.0,2020.0,0.0,0.0,0.0,0.0,1,1,0.0,1,1.0,0,1.0,0,1.0,0,1.0
7222,7362,'1',0.01114,0.04873,0.00742,149.0,149.0,149.0,0.0,0.0,0.0,0.0,1,1,0.0,1,1.0,0,1.0,0,1.0,0,1.0
6186,6187,'1',0.00175,0.01131,0.00216,221.0,221.0,221.0,0.0,0.0,0.0,0.0,1,1,0.0,1,1.0,0,1.0,0,1.0,0,1.0
7383,7185,'2',0.00607,0.04227,0.00691,221.0,221.0,221.0,0.0,0.0,0.0,0.0,1,1,0.0,1,1.0,0,1.0,0,1.0,0,1.0
4035,4150,'1',0.02431,0.05942,0.00778,98.0,98.0,98.0,0.0,0.0,0.0,0.0,1,1,0.0,1,1.0,0,1.0,0,1.0,0,1.0
6044,6323,'2',0.0021,0.01432,0.00244,221.0,221.0,221.0,0.0,0.0,0.0,0.0,1,1,0.0,1,1.0,0,1.0,0,1.0,0,1.0
4019,4067,'2',0.00919,0.06276,0.01068,221.0,221.0,221.0,0.0,0.0,0.0,0.0,1,1,0.0,1,1.0,0,1.0,0,1.0,0,1.0
6058,6124,'1',0.00613,0.04269,0.00698,221.0,221.0,221.0,0.0,0.0,0.0,0.0,1,1,0.0,1,1.0,0,1.0,0,1.0,0,1.0
4187,4022,'1',0.02501,0.10376,0.01761,149.0,149.0,149.0,0.0,0.0,0.0,0.0,1,1,0.0,1,1.0,0,1.0,0,1.0,0,1.0
...